PV-006710095262
 OpenBabel01282514512D

 29 32  0  0  1  0  0  0  0  0999 V2000
    3.5116    1.0933    0.0000 C   0  0  0  0  0  0  0  0  0  0  0  0
    3.5116    0.0933    0.0000 C   0  0  2  0  0  0  0  0  0  0  0  0
    4.3776   -0.4067    0.0000 C   0  0  0  0  0  0  0  0  0  0  0  0
    4.3776   -1.4067    0.0000 N   0  0  0  0  0  0  0  0  0  0  0  0
    5.2437   -1.9067    0.0000 C   0  0  0  0  0  0  0  0  0  0  0  0
    5.2437   -2.9067    0.0000 O   0  0  0  0  0  0  0  0  0  0  0  0
    6.1097   -1.4067    0.0000 C   0  0  0  0  0  0  0  0  0  0  0  0
    6.1097   -0.4067    0.0000 C   0  0  0  0  0  0  0  0  0  0  0  0
    6.9757    0.0933    0.0000 C   0  0  0  0  0  0  0  0  0  0  0  0
    6.9757    1.0933    0.0000 C   0  0  0  0  0  0  0  0  0  0  0  0
    7.8417    1.5933    0.0000 C   0  0  0  0  0  0  0  0  0  0  0  0
    8.7078    1.0933    0.0000 C   0  0  0  0  0  0  0  0  0  0  0  0
    9.5738    1.5933    0.0000 C   0  0  0  0  0  0  0  0  0  0  0  0
   10.4398    1.0933    0.0000 C   0  0  0  0  0  0  0  0  0  0  0  0
   10.4398    0.0933    0.0000 C   0  0  0  0  0  0  0  0  0  0  0  0
    9.5738   -0.4067    0.0000 C   0  0  0  0  0  0  0  0  0  0  0  0
    8.7078    0.0933    0.0000 C   0  0  0  0  0  0  0  0  0  0  0  0
    7.8417   -0.4067    0.0000 C   0  0  0  0  0  0  0  0  0  0  0  0
    7.8417   -1.4067    0.0000 O   0  0  0  0  0  0  0  0  0  0  0  0
    3.5116   -1.9067    0.0000 C   0  0  0  0  0  0  0  0  0  0  0  0
    2.6456   -1.4067    0.0000 C   0  0  0  0  0  0  0  0  0  0  0  0
    2.6456   -0.4067    0.0000 N   0  0  0  0  0  0  0  0  0  0  0  0
    1.7796    0.0933    0.0000 C   0  0  0  0  0  0  0  0  0  0  0  0
    1.7796    1.0933    0.0000 O   0  0  0  0  0  0  0  0  0  0  0  0
    0.9135   -0.4067    0.0000 C   0  0  0  0  0  0  0  0  0  0  0  0
    0.8090   -1.4013    0.0000 C   0  0  0  0  0  0  0  0  0  0  0  0
   -0.1691   -1.6092    0.0000 C   0  0  0  0  0  0  0  0  0  0  0  0
   -0.6691   -0.7431    0.0000 N   0  0  0  0  0  0  0  0  0  0  0  0
   -0.0000   -0.0000    0.0000 N   0  0  0  0  0  0  0  0  0  0  0  0
  2  1  1  6  0  0  0
  2  3  1  0  0  0  0
  2 22  1  0  0  0  0
  3  4  1  0  0  0  0
  4  5  1  0  0  0  0
  4 20  1  0  0  0  0
  5  6  2  0  0  0  0
  5  7  1  0  0  0  0
  7  8  1  0  0  0  0
  8  9  1  0  0  0  0
  9 18  2  0  0  0  0
  9 10  1  0  0  0  0
 10 11  2  0  0  0  0
 11 12  1  0  0  0  0
 12 17  2  0  0  0  0
 12 13  1  0  0  0  0
 13 14  2  0  0  0  0
 14 15  1  0  0  0  0
 15 16  2  0  0  0  0
 16 17  1  0  0  0  0
 17 18  1  0  0  0  0
 18 19  1  0  0  0  0
 20 21  1  0  0  0  0
 21 22  1  0  0  0  0
 22 23  1  0  0  0  0
 23 24  2  0  0  0  0
 23 25  1  0  0  0  0
 25 29  2  0  0  0  0
 25 26  1  0  0  0  0
 26 27  2  0  0  0  0
 27 28  1  0  0  0  0
 28 29  1  0  0  0  0
M  END
$$$$
