7l1u_receptor_and_orexin_empty_pocket_2_empty_space_aligned
  PyMOL2.5          3D                             0

  0  0  0  0  0  0  0  0  0  0999 V3000
M  V30 BEGIN CTAB
M  V30 COUNTS 449 3614 0 0 0
M  V30 BEGIN ATOM
M  V30 1 O -4.5640 -2.1030 0.4470 0
M  V30 2 O -4.5640 1.8970 2.4470 0
M  V30 3 O -4.5640 1.8970 3.4470 0
M  V30 4 O -4.5640 1.8970 4.4470 0
M  V30 5 O -4.5640 2.8970 -3.5530 0
M  V30 6 O -4.5640 2.8970 -2.5530 0
M  V30 7 O -4.5640 2.8970 3.4470 0
M  V30 8 O -4.5640 -1.1030 3.4470 0
M  V30 9 O -4.5640 -3.1030 -3.5530 0
M  V30 10 O -4.5640 -1.1030 4.4470 0
M  V30 11 O -4.5640 -0.1030 -3.5530 0
M  V30 12 O -3.5640 -3.1030 2.4470 0
M  V30 13 O -4.5640 2.8970 4.4470 0
M  V30 14 O -3.5640 -3.1030 3.4470 0
M  V30 15 O -4.5640 3.8970 -3.5530 0
M  V30 16 O -3.5640 -3.1030 4.4470 0
M  V30 17 O -4.5640 3.8970 -2.5530 0
M  V30 18 O -3.5640 -2.1030 -3.5530 0
M  V30 19 O -3.5640 -2.1030 -2.5530 0
M  V30 20 O -3.5640 -2.1030 -0.5530 0
M  V30 21 O -3.5640 -2.1030 0.4470 0
M  V30 22 O -4.5640 3.8970 2.4470 0
M  V30 23 O -3.5640 -2.1030 1.4470 0
M  V30 24 O -4.5640 3.8970 3.4470 0
M  V30 25 O -3.5640 -2.1030 2.4470 0
M  V30 26 O -4.5640 3.8970 4.4470 0
M  V30 27 O -3.5640 -2.1030 3.4470 0
M  V30 28 O -3.5640 -2.1030 4.4470 0
M  V30 29 O -3.5640 -1.1030 -3.5530 0
M  V30 30 O -4.5640 4.8970 2.4470 0
M  V30 31 O -4.5640 4.8970 4.4470 0
M  V30 32 O -3.5640 -3.1030 -3.5530 0
M  V30 33 O -3.5640 -3.1030 -2.5530 0
M  V30 34 O -3.5640 -3.1030 -1.5530 0
M  V30 35 O -3.5640 -3.1030 -0.5530 0
M  V30 36 O -3.5640 -3.1030 0.4470 0
M  V30 37 O -4.5640 -3.1030 -1.5530 0
M  V30 38 O -4.5640 -0.1030 -2.5530 0
M  V30 39 O -4.5640 -3.1030 -0.5530 0
M  V30 40 O -4.5640 -3.1030 0.4470 0
M  V30 41 O -4.5640 -3.1030 1.4470 0
M  V30 42 O -4.5640 -0.1030 1.4470 0
M  V30 43 O -4.5640 -0.1030 2.4470 0
M  V30 44 O -4.5640 -0.1030 3.4470 0
M  V30 45 O -4.5640 -2.1030 -3.5530 0
M  V30 46 O -4.5640 -2.1030 -2.5530 0
M  V30 47 O -4.5640 0.8970 -3.5530 0
M  V30 48 O -4.5640 -2.1030 -1.5530 0
M  V30 49 O -4.5640 -2.1030 -0.5530 0
M  V30 50 O -4.5640 -2.1030 1.4470 0
M  V30 51 O -4.5640 -2.1030 2.4470 0
M  V30 52 O -4.5640 -2.1030 3.4470 0
M  V30 53 O -4.5640 0.8970 2.4470 0
M  V30 54 O -4.5640 -2.1030 4.4470 0
M  V30 55 O -4.5640 0.8970 3.4470 0
M  V30 56 O -4.5640 -1.1030 -3.5530 0
M  V30 57 O -4.5640 0.8970 4.4470 0
M  V30 58 O -4.5640 -1.1030 -2.5530 0
M  V30 59 O -4.5640 1.8970 -3.5530 0
M  V30 60 O -4.5640 -1.1030 -1.5530 0
M  V30 61 O -4.5640 -1.1030 0.4470 0
M  V30 62 O -4.5640 -1.1030 1.4470 0
M  V30 63 O -4.5640 -1.1030 2.4470 0
M  V30 64 O -3.5640 0.8970 2.4470 0
M  V30 65 O -3.5640 -0.1030 1.4470 0
M  V30 66 O -3.5640 -0.1030 2.4470 0
M  V30 67 O -3.5640 -0.1030 3.4470 0
M  V30 68 O -3.5640 -0.1030 4.4470 0
M  V30 69 O -3.5640 0.8970 -3.5530 0
M  V30 70 O -3.5640 0.8970 -2.5530 0
M  V30 71 O -3.5640 0.8970 1.4470 0
M  V30 72 O -3.5640 -1.1030 -2.5530 0
M  V30 73 O -3.5640 -1.1030 -0.5530 0
M  V30 74 O -3.5640 -1.1030 0.4470 0
M  V30 75 O -3.5640 -1.1030 1.4470 0
M  V30 76 O -3.5640 -1.1030 2.4470 0
M  V30 77 O -3.5640 -1.1030 3.4470 0
M  V30 78 O -3.5640 -1.1030 4.4470 0
M  V30 79 O -3.5640 -0.1030 -3.5530 0
M  V30 80 O -3.5640 -0.1030 -2.5530 0
M  V30 81 O -2.5640 -1.1030 1.4470 0
M  V30 82 O -2.5640 -2.1030 0.4470 0
M  V30 83 O -2.5640 -2.1030 1.4470 0
M  V30 84 O -2.5640 -2.1030 2.4470 0
M  V30 85 O -2.5640 -2.1030 3.4470 0
M  V30 86 O -2.5640 -2.1030 4.4470 0
M  V30 87 O -2.5640 -1.1030 -3.5530 0
M  V30 88 O -2.5640 -1.1030 0.4470 0
M  V30 89 O -3.5640 0.8970 3.4470 0
M  V30 90 O -3.5640 3.8970 2.4470 0
M  V30 91 O -3.5640 0.8970 4.4470 0
M  V30 92 O -3.5640 3.8970 3.4470 0
M  V30 93 O -3.5640 1.8970 -3.5530 0
M  V30 94 O -3.5640 3.8970 4.4470 0
M  V30 95 O -3.5640 1.8970 -2.5530 0
M  V30 96 O -3.5640 4.8970 -3.5530 0
M  V30 97 O -3.5640 4.8970 -2.5530 0
M  V30 98 O -3.5640 1.8970 2.4470 0
M  V30 99 O -3.5640 4.8970 1.4470 0
M  V30 100 O -3.5640 1.8970 3.4470 0
M  V30 101 O -3.5640 4.8970 2.4470 0
M  V30 102 O -3.5640 1.8970 4.4470 0
M  V30 103 O -3.5640 4.8970 3.4470 0
M  V30 104 O -3.5640 2.8970 -3.5530 0
M  V30 105 O -3.5640 4.8970 4.4470 0
M  V30 106 O -3.5640 2.8970 -2.5530 0
M  V30 107 O -2.5640 -3.1030 -3.5530 0
M  V30 108 O -2.5640 -3.1030 -2.5530 0
M  V30 109 O -2.5640 -3.1030 -0.5530 0
M  V30 110 O -2.5640 -3.1030 0.4470 0
M  V30 111 O -2.5640 -3.1030 1.4470 0
M  V30 112 O -3.5640 2.8970 3.4470 0
M  V30 113 O -2.5640 -3.1030 2.4470 0
M  V30 114 O -3.5640 2.8970 4.4470 0
M  V30 115 O -2.5640 -3.1030 3.4470 0
M  V30 116 O -2.5640 -3.1030 4.4470 0
M  V30 117 O -2.5640 -2.1030 -3.5530 0
M  V30 118 O -2.5640 -1.1030 2.4470 0
M  V30 119 O -2.5640 -1.1030 3.4470 0
M  V30 120 O -2.5640 -1.1030 4.4470 0
M  V30 121 O -2.5640 -0.1030 -3.5530 0
M  V30 122 O -2.5640 -0.1030 0.4470 0
M  V30 123 O -2.5640 -0.1030 1.4470 0
M  V30 124 O -2.5640 -0.1030 2.4470 0
M  V30 125 O -2.5640 -0.1030 3.4470 0
M  V30 126 O -2.5640 -0.1030 4.4470 0
M  V30 127 O -2.5640 0.8970 -3.5530 0
M  V30 128 O -2.5640 0.8970 -2.5530 0
M  V30 129 O -2.5640 4.8970 2.4470 0
M  V30 130 O -2.5640 4.8970 3.4470 0
M  V30 131 O -2.5640 4.8970 4.4470 0
M  V30 132 O -1.5640 -3.1030 -3.5530 0
M  V30 133 O -1.5640 -3.1030 -2.5530 0
M  V30 134 O -1.5640 -3.1030 -0.5530 0
M  V30 135 O -2.5640 1.8970 2.4470 0
M  V30 136 O -2.5640 1.8970 3.4470 0
M  V30 137 O -2.5640 1.8970 4.4470 0
M  V30 138 O -2.5640 2.8970 -3.5530 0
M  V30 139 O -2.5640 2.8970 -2.5530 0
M  V30 140 O -2.5640 2.8970 -1.5530 0
M  V30 141 O -2.5640 2.8970 2.4470 0
M  V30 142 O -2.5640 2.8970 3.4470 0
M  V30 143 O -2.5640 2.8970 4.4470 0
M  V30 144 O -2.5640 3.8970 -3.5530 0
M  V30 145 O -2.5640 3.8970 -2.5530 0
M  V30 146 O -2.5640 0.8970 0.4470 0
M  V30 147 O -2.5640 0.8970 1.4470 0
M  V30 148 O -2.5640 0.8970 2.4470 0
M  V30 149 O -2.5640 0.8970 3.4470 0
M  V30 150 O -2.5640 3.8970 2.4470 0
M  V30 151 O -2.5640 0.8970 4.4470 0
M  V30 152 O -2.5640 3.8970 3.4470 0
M  V30 153 O -2.5640 1.8970 -3.5530 0
M  V30 154 O -2.5640 3.8970 4.4470 0
M  V30 155 O -2.5640 1.8970 -1.5530 0
M  V30 156 O -2.5640 4.8970 -2.5530 0
M  V30 157 O -1.5640 -3.1030 1.4470 0
M  V30 158 O -1.5640 -0.1030 0.4470 0
M  V30 159 O -1.5640 -3.1030 2.4470 0
M  V30 160 O -1.5640 -0.1030 1.4470 0
M  V30 161 O -1.5640 -3.1030 3.4470 0
M  V30 162 O -1.5640 -0.1030 2.4470 0
M  V30 163 O -1.5640 -3.1030 4.4470 0
M  V30 164 O -1.5640 -0.1030 3.4470 0
M  V30 165 O -1.5640 -2.1030 -3.5530 0
M  V30 166 O -1.5640 -0.1030 4.4470 0
M  V30 167 O -1.5640 -2.1030 1.4470 0
M  V30 168 O -1.5640 0.8970 0.4470 0
M  V30 169 O -1.5640 -2.1030 2.4470 0
M  V30 170 O -1.5640 0.8970 1.4470 0
M  V30 171 O -1.5640 -2.1030 3.4470 0
M  V30 172 O -1.5640 0.8970 2.4470 0
M  V30 173 O -1.5640 -2.1030 4.4470 0
M  V30 174 O -1.5640 0.8970 3.4470 0
M  V30 175 O -1.5640 0.8970 4.4470 0
M  V30 176 O -1.5640 -1.1030 1.4470 0
M  V30 177 O -1.5640 1.8970 0.4470 0
M  V30 178 O -1.5640 -1.1030 2.4470 0
M  V30 179 O -1.5640 1.8970 1.4470 0
M  V30 180 O -1.5640 -1.1030 3.4470 0
M  V30 181 O -1.5640 1.8970 2.4470 0
M  V30 182 O -1.5640 -1.1030 4.4470 0
M  V30 183 O -1.5640 1.8970 3.4470 0
M  V30 184 O -1.5640 -0.1030 -3.5530 0
M  V30 185 O -1.5640 1.8970 4.4470 0
M  V30 186 O -1.5640 2.8970 -0.5530 0
M  V30 187 O -1.5640 2.8970 1.4470 0
M  V30 188 O -1.5640 2.8970 2.4470 0
M  V30 189 O -1.5640 2.8970 3.4470 0
M  V30 190 O -1.5640 2.8970 4.4470 0
M  V30 191 O -1.5640 3.8970 -2.5530 0
M  V30 192 O -1.5640 3.8970 -1.5530 0
M  V30 193 O -0.5640 0.8970 1.4470 0
M  V30 194 O -0.5640 0.8970 2.4470 0
M  V30 195 O -0.5640 0.8970 3.4470 0
M  V30 196 O -0.5640 0.8970 4.4470 0
M  V30 197 O -1.5640 3.8970 2.4470 0
M  V30 198 O -1.5640 3.8970 3.4470 0
M  V30 199 O -0.5640 -2.1030 2.4470 0
M  V30 200 O -1.5640 3.8970 4.4470 0
M  V30 201 O -0.5640 -2.1030 3.4470 0
M  V30 202 O -0.5640 -2.1030 4.4470 0
M  V30 203 O -0.5640 -1.1030 -3.5530 0
M  V30 204 O -0.5640 -1.1030 1.4470 0
M  V30 205 O -1.5640 4.8970 3.4470 0
M  V30 206 O -0.5640 -1.1030 2.4470 0
M  V30 207 O -1.5640 4.8970 4.4470 0
M  V30 208 O -0.5640 -1.1030 3.4470 0
M  V30 209 O -0.5640 -3.1030 -3.5530 0
M  V30 210 O -0.5640 -1.1030 4.4470 0
M  V30 211 O -0.5640 -3.1030 -2.5530 0
M  V30 212 O -0.5640 -0.1030 -3.5530 0
M  V30 213 O -0.5640 -3.1030 -1.5530 0
M  V30 214 O -0.5640 -3.1030 -0.5530 0
M  V30 215 O -0.5640 -3.1030 1.4470 0
M  V30 216 O -0.5640 -0.1030 0.4470 0
M  V30 217 O -0.5640 -3.1030 2.4470 0
M  V30 218 O -0.5640 -0.1030 1.4470 0
M  V30 219 O -0.5640 -3.1030 3.4470 0
M  V30 220 O -0.5640 -0.1030 2.4470 0
M  V30 221 O -0.5640 -3.1030 4.4470 0
M  V30 222 O -0.5640 -0.1030 3.4470 0
M  V30 223 O -0.5640 -2.1030 -3.5530 0
M  V30 224 O -0.5640 -0.1030 4.4470 0
M  V30 225 O -0.5640 4.8970 -2.5530 0
M  V30 226 O -0.5640 1.8970 0.4470 0
M  V30 227 O -0.5640 1.8970 1.4470 0
M  V30 228 O -0.5640 1.8970 2.4470 0
M  V30 229 O -0.5640 1.8970 3.4470 0
M  V30 230 O -0.5640 1.8970 4.4470 0
M  V30 231 O -0.5640 2.8970 1.4470 0
M  V30 232 O -0.5640 2.8970 2.4470 0
M  V30 233 O -0.5640 2.8970 3.4470 0
M  V30 234 O -0.5640 2.8970 4.4470 0
M  V30 235 O -0.5640 3.8970 -3.5530 0
M  V30 236 O -0.5640 3.8970 1.4470 0
M  V30 237 O -0.5640 3.8970 2.4470 0
M  V30 238 O -0.5640 3.8970 3.4470 0
M  V30 239 O -0.5640 3.8970 4.4470 0
M  V30 240 O 0.4360 -1.1030 -3.5530 0
M  V30 241 O 0.4360 -1.1030 -2.5530 0
M  V30 242 O 0.4360 -1.1030 -0.5530 0
M  V30 243 O 0.4360 -1.1030 0.4470 0
M  V30 244 O 0.4360 -1.1030 1.4470 0
M  V30 245 O 0.4360 -1.1030 2.4470 0
M  V30 246 O 0.4360 -1.1030 3.4470 0
M  V30 247 O 0.4360 -1.1030 4.4470 0
M  V30 248 O 0.4360 -0.1030 -3.5530 0
M  V30 249 O -0.5640 4.8970 2.4470 0
M  V30 250 O -0.5640 4.8970 3.4470 0
M  V30 251 O 0.4360 -3.1030 -3.5530 0
M  V30 252 O 0.4360 -3.1030 -2.5530 0
M  V30 253 O 0.4360 -3.1030 -1.5530 0
M  V30 254 O 0.4360 -3.1030 -0.5530 0
M  V30 255 O 0.4360 -3.1030 0.4470 0
M  V30 256 O 0.4360 -3.1030 1.4470 0
M  V30 257 O 0.4360 -3.1030 2.4470 0
M  V30 258 O 0.4360 -3.1030 3.4470 0
M  V30 259 O 0.4360 -3.1030 4.4470 0
M  V30 260 O 0.4360 -2.1030 -3.5530 0
M  V30 261 O 0.4360 -2.1030 -2.5530 0
M  V30 262 O 0.4360 -2.1030 -1.5530 0
M  V30 263 O 0.4360 -2.1030 -0.5530 0
M  V30 264 O 0.4360 -2.1030 1.4470 0
M  V30 265 O 0.4360 -2.1030 2.4470 0
M  V30 266 O 0.4360 -2.1030 3.4470 0
M  V30 267 O 0.4360 -2.1030 4.4470 0
M  V30 268 O 1.4360 -2.1030 -3.5530 0
M  V30 269 O 0.4360 4.8970 4.4470 0
M  V30 270 O 1.4360 -3.1030 -2.5530 0
M  V30 271 O 1.4360 -3.1030 2.4470 0
M  V30 272 O 1.4360 -3.1030 3.4470 0
M  V30 273 O 1.4360 -3.1030 4.4470 0
M  V30 274 O 0.4360 -0.1030 0.4470 0
M  V30 275 O 0.4360 -0.1030 1.4470 0
M  V30 276 O 0.4360 -0.1030 2.4470 0
M  V30 277 O 0.4360 -0.1030 3.4470 0
M  V30 278 O 0.4360 2.8970 2.4470 0
M  V30 279 O 0.4360 -0.1030 4.4470 0
M  V30 280 O 0.4360 2.8970 3.4470 0
M  V30 281 O 0.4360 2.8970 4.4470 0
M  V30 282 O 0.4360 0.8970 0.4470 0
M  V30 283 O 0.4360 0.8970 1.4470 0
M  V30 284 O 0.4360 0.8970 2.4470 0
M  V30 285 O 0.4360 0.8970 3.4470 0
M  V30 286 O 0.4360 3.8970 2.4470 0
M  V30 287 O 0.4360 0.8970 4.4470 0
M  V30 288 O 0.4360 3.8970 3.4470 0
M  V30 289 O 0.4360 3.8970 4.4470 0
M  V30 290 O 0.4360 4.8970 -3.5530 0
M  V30 291 O 0.4360 1.8970 1.4470 0
M  V30 292 O 0.4360 1.8970 2.4470 0
M  V30 293 O 0.4360 4.8970 1.4470 0
M  V30 294 O 0.4360 1.8970 3.4470 0
M  V30 295 O 0.4360 4.8970 2.4470 0
M  V30 296 O 0.4360 1.8970 4.4470 0
M  V30 297 O 0.4360 4.8970 3.4470 0
M  V30 298 O 1.4360 -2.1030 -2.5530 0
M  V30 299 O 1.4360 -2.1030 -1.5530 0
M  V30 300 O 1.4360 -2.1030 -0.5530 0
M  V30 301 O 1.4360 -2.1030 0.4470 0
M  V30 302 O 1.4360 3.8970 4.4470 0
M  V30 303 O 1.4360 2.8970 3.4470 0
M  V30 304 O 1.4360 2.8970 4.4470 0
M  V30 305 O 1.4360 3.8970 -3.5530 0
M  V30 306 O 1.4360 3.8970 1.4470 0
M  V30 307 O 1.4360 3.8970 2.4470 0
M  V30 308 O 1.4360 3.8970 3.4470 0
M  V30 309 O 1.4360 -0.1030 4.4470 0
M  V30 310 O 1.4360 0.8970 -0.5530 0
M  V30 311 O 1.4360 -2.1030 1.4470 0
M  V30 312 O 1.4360 0.8970 0.4470 0
M  V30 313 O 1.4360 -2.1030 2.4470 0
M  V30 314 O 1.4360 0.8970 1.4470 0
M  V30 315 O 1.4360 -2.1030 3.4470 0
M  V30 316 O 1.4360 0.8970 2.4470 0
M  V30 317 O 1.4360 -2.1030 4.4470 0
M  V30 318 O 1.4360 0.8970 3.4470 0
M  V30 319 O 1.4360 0.8970 4.4470 0
M  V30 320 O 1.4360 1.8970 -3.5530 0
M  V30 321 O 1.4360 -1.1030 -0.5530 0
M  V30 322 O 1.4360 -1.1030 0.4470 0
M  V30 323 O 1.4360 -1.1030 1.4470 0
M  V30 324 O 1.4360 1.8970 0.4470 0
M  V30 325 O 1.4360 -1.1030 2.4470 0
M  V30 326 O 1.4360 1.8970 1.4470 0
M  V30 327 O 1.4360 -1.1030 3.4470 0
M  V30 328 O 1.4360 1.8970 2.4470 0
M  V30 329 O 1.4360 -1.1030 4.4470 0
M  V30 330 O 1.4360 1.8970 3.4470 0
M  V30 331 O 1.4360 1.8970 4.4470 0
M  V30 332 O 1.4360 2.8970 -3.5530 0
M  V30 333 O 1.4360 -0.1030 -0.5530 0
M  V30 334 O 1.4360 -0.1030 0.4470 0
M  V30 335 O 1.4360 -0.1030 1.4470 0
M  V30 336 O 1.4360 -0.1030 2.4470 0
M  V30 337 O 1.4360 2.8970 1.4470 0
M  V30 338 O 1.4360 -0.1030 3.4470 0
M  V30 339 O 1.4360 2.8970 2.4470 0
M  V30 340 O 2.4360 -2.1030 3.4470 0
M  V30 341 O 1.4360 4.8970 -3.5530 0
M  V30 342 O 2.4360 -2.1030 4.4470 0
M  V30 343 O 1.4360 4.8970 -2.5530 0
M  V30 344 O 2.4360 -1.1030 -0.5530 0
M  V30 345 O 1.4360 4.8970 1.4470 0
M  V30 346 O 2.4360 -1.1030 0.4470 0
M  V30 347 O 1.4360 4.8970 2.4470 0
M  V30 348 O 2.4360 -1.1030 1.4470 0
M  V30 349 O 1.4360 4.8970 3.4470 0
M  V30 350 O 2.4360 -1.1030 2.4470 0
M  V30 351 O 1.4360 4.8970 4.4470 0
M  V30 352 O 2.4360 -1.1030 3.4470 0
M  V30 353 O 2.4360 -1.1030 4.4470 0
M  V30 354 O 2.4360 -0.1030 0.4470 0
M  V30 355 O 2.4360 -3.1030 2.4470 0
M  V30 356 O 2.4360 -0.1030 1.4470 0
M  V30 357 O 2.4360 -3.1030 3.4470 0
M  V30 358 O 2.4360 -3.1030 4.4470 0
M  V30 359 O 2.4360 -2.1030 -0.5530 0
M  V30 360 O 2.4360 -2.1030 1.4470 0
M  V30 361 O 2.4360 -2.1030 2.4470 0
M  V30 362 O 2.4360 1.8970 3.4470 0
M  V30 363 O 2.4360 0.8970 2.4470 0
M  V30 364 O 2.4360 0.8970 3.4470 0
M  V30 365 O 2.4360 0.8970 4.4470 0
M  V30 366 O 2.4360 1.8970 -1.5530 0
M  V30 367 O 2.4360 1.8970 -0.5530 0
M  V30 368 O 2.4360 1.8970 0.4470 0
M  V30 369 O 2.4360 1.8970 1.4470 0
M  V30 370 O 2.4360 1.8970 2.4470 0
M  V30 371 O 2.4360 -0.1030 2.4470 0
M  V30 372 O 2.4360 -0.1030 3.4470 0
M  V30 373 O 2.4360 -0.1030 4.4470 0
M  V30 374 O 2.4360 0.8970 -0.5530 0
M  V30 375 O 2.4360 0.8970 0.4470 0
M  V30 376 O 2.4360 0.8970 1.4470 0
M  V30 377 O 3.4360 -0.1030 2.4470 0
M  V30 378 O 3.4360 -1.1030 1.4470 0
M  V30 379 O 3.4360 -1.1030 2.4470 0
M  V30 380 O 3.4360 -1.1030 3.4470 0
M  V30 381 O 3.4360 -1.1030 4.4470 0
M  V30 382 O 3.4360 -0.1030 -0.5530 0
M  V30 383 O 3.4360 -0.1030 0.4470 0
M  V30 384 O 3.4360 -0.1030 1.4470 0
M  V30 385 O 2.4360 4.8970 2.4470 0
M  V30 386 O 2.4360 1.8970 4.4470 0
M  V30 387 O 2.4360 4.8970 3.4470 0
M  V30 388 O 2.4360 4.8970 4.4470 0
M  V30 389 O 2.4360 2.8970 -2.5530 0
M  V30 390 O 3.4360 -3.1030 -2.5530 0
M  V30 391 O 2.4360 2.8970 -0.5530 0
M  V30 392 O 2.4360 2.8970 1.4470 0
M  V30 393 O 2.4360 2.8970 2.4470 0
M  V30 394 O 2.4360 2.8970 3.4470 0
M  V30 395 O 3.4360 -3.1030 2.4470 0
M  V30 396 O 2.4360 2.8970 4.4470 0
M  V30 397 O 3.4360 -3.1030 3.4470 0
M  V30 398 O 3.4360 -3.1030 4.4470 0
M  V30 399 O 2.4360 3.8970 -2.5530 0
M  V30 400 O 3.4360 -2.1030 -3.5530 0
M  V30 401 O 2.4360 3.8970 -1.5530 0
M  V30 402 O 3.4360 -2.1030 0.4470 0
M  V30 403 O 2.4360 3.8970 2.4470 0
M  V30 404 O 3.4360 -2.1030 1.4470 0
M  V30 405 O 2.4360 3.8970 3.4470 0
M  V30 406 O 3.4360 -2.1030 2.4470 0
M  V30 407 O 2.4360 3.8970 4.4470 0
M  V30 408 O 3.4360 -2.1030 3.4470 0
M  V30 409 O 2.4360 4.8970 -3.5530 0
M  V30 410 O 3.4360 -2.1030 4.4470 0
M  V30 411 O 2.4360 4.8970 -1.5530 0
M  V30 412 O 3.4360 -1.1030 -0.5530 0
M  V30 413 O 2.4360 4.8970 1.4470 0
M  V30 414 O 3.4360 -1.1030 0.4470 0
M  V30 415 O 3.4360 -0.1030 3.4470 0
M  V30 416 O 3.4360 -0.1030 4.4470 0
M  V30 417 O 3.4360 0.8970 -0.5530 0
M  V30 418 O 3.4360 0.8970 0.4470 0
M  V30 419 O 3.4360 0.8970 1.4470 0
M  V30 420 O 3.4360 0.8970 2.4470 0
M  V30 421 O 3.4360 0.8970 3.4470 0
M  V30 422 O 3.4360 0.8970 4.4470 0
M  V30 423 O 3.4360 1.8970 -0.5530 0
M  V30 424 O 3.4360 1.8970 0.4470 0
M  V30 425 O 3.4360 1.8970 1.4470 0
M  V30 426 O 3.4360 1.8970 2.4470 0
M  V30 427 O 3.4360 2.8970 1.4470 0
M  V30 428 O 3.4360 2.8970 2.4470 0
M  V30 429 O 3.4360 2.8970 3.4470 0
M  V30 430 O 3.4360 2.8970 4.4470 0
M  V30 431 O 3.4360 3.8970 -2.5530 0
M  V30 432 O 3.4360 3.8970 -1.5530 0
M  V30 433 O 3.4360 3.8970 -0.5530 0
M  V30 434 O 3.4360 3.8970 1.4470 0
M  V30 435 O 3.4360 3.8970 2.4470 0
M  V30 436 O 3.4360 3.8970 3.4470 0
M  V30 437 O 3.4360 3.8970 4.4470 0
M  V30 438 O 3.4360 4.8970 -3.5530 0
M  V30 439 O 3.4360 4.8970 -1.5530 0
M  V30 440 O 3.4360 4.8970 -0.5530 0
M  V30 441 O 3.4360 4.8970 1.4470 0
M  V30 442 O 3.4360 1.8970 3.4470 0
M  V30 443 O 3.4360 4.8970 2.4470 0
M  V30 444 O 3.4360 1.8970 4.4470 0
M  V30 445 O 3.4360 4.8970 3.4470 0
M  V30 446 O 3.4360 4.8970 4.4470 0
M  V30 447 O 3.4360 2.8970 -1.5530 0
M  V30 448 O 3.4360 2.8970 -0.5530 0
M  V30 449 O 3.4360 2.8970 0.4470 0
M  V30 END ATOM
M  V30 BEGIN BOND
M  V30 1 1 1 20
M  V30 2 1 1 21
M  V30 3 1 1 23
M  V30 4 1 1 35
M  V30 5 1 1 36
M  V30 6 1 1 50
M  V30 7 1 1 61
M  V30 8 1 1 62
M  V30 9 1 1 73
M  V30 10 1 1 74
M  V30 11 1 1 75
M  V30 12 1 2 3
M  V30 13 1 2 7
M  V30 14 1 2 64
M  V30 15 1 2 71
M  V30 16 1 2 89
M  V30 17 1 2 98
M  V30 18 1 2 100
M  V30 19 1 2 112
M  V30 20 1 3 4
M  V30 21 1 3 7
M  V30 22 1 3 13
M  V30 23 1 3 64
M  V30 24 1 3 89
M  V30 25 1 3 91
M  V30 26 1 3 98
M  V30 27 1 3 100
M  V30 28 1 3 102
M  V30 29 1 3 112
M  V30 30 1 3 114
M  V30 31 1 4 7
M  V30 32 1 4 13
M  V30 33 1 4 89
M  V30 34 1 4 91
M  V30 35 1 4 100
M  V30 36 1 4 102
M  V30 37 1 4 112
M  V30 38 1 4 114
M  V30 39 1 5 6
M  V30 40 1 5 15
M  V30 41 1 5 17
M  V30 42 1 5 93
M  V30 43 1 5 95
M  V30 44 1 5 104
M  V30 45 1 5 106
M  V30 46 1 6 15
M  V30 47 1 6 17
M  V30 48 1 6 93
M  V30 49 1 6 95
M  V30 50 1 6 104
M  V30 51 1 6 106
M  V30 52 1 7 13
M  V30 53 1 7 22
M  V30 54 1 7 24
M  V30 55 1 7 26
M  V30 56 1 7 90
M  V30 57 1 7 92
M  V30 58 1 7 94
M  V30 59 1 7 98
M  V30 60 1 7 100
M  V30 61 1 7 102
M  V30 62 1 7 112
M  V30 63 1 7 114
M  V30 64 1 8 10
M  V30 65 1 8 25
M  V30 66 1 8 27
M  V30 67 1 8 28
M  V30 68 1 8 43
M  V30 69 1 8 44
M  V30 70 1 8 66
M  V30 71 1 8 67
M  V30 72 1 8 68
M  V30 73 1 8 76
M  V30 74 1 8 77
M  V30 75 1 8 78
M  V30 76 1 9 18
M  V30 77 1 9 19
M  V30 78 1 9 32
M  V30 79 1 9 33
M  V30 80 1 9 45
M  V30 81 1 9 46
M  V30 82 1 10 27
M  V30 83 1 10 28
M  V30 84 1 10 44
M  V30 85 1 10 67
M  V30 86 1 10 68
M  V30 87 1 10 77
M  V30 88 1 10 78
M  V30 89 1 11 29
M  V30 90 1 11 38
M  V30 91 1 11 47
M  V30 92 1 11 69
M  V30 93 1 11 70
M  V30 94 1 11 72
M  V30 95 1 11 79
M  V30 96 1 11 80
M  V30 97 1 12 14
M  V30 98 1 12 23
M  V30 99 1 12 25
M  V30 100 1 12 27
M  V30 101 1 12 83
M  V30 102 1 12 84
M  V30 103 1 12 85
M  V30 104 1 12 111
M  V30 105 1 12 113
M  V30 106 1 12 115
M  V30 107 1 13 24
M  V30 108 1 13 26
M  V30 109 1 13 92
M  V30 110 1 13 94
M  V30 111 1 13 100
M  V30 112 1 13 102
M  V30 113 1 13 112
M  V30 114 1 13 114
M  V30 115 1 14 16
M  V30 116 1 14 25
M  V30 117 1 14 27
M  V30 118 1 14 28
M  V30 119 1 14 84
M  V30 120 1 14 85
M  V30 121 1 14 86
M  V30 122 1 14 113
M  V30 123 1 14 115
M  V30 124 1 14 116
M  V30 125 1 15 17
M  V30 126 1 15 96
M  V30 127 1 15 97
M  V30 128 1 15 104
M  V30 129 1 15 106
M  V30 130 1 16 27
M  V30 131 1 16 28
M  V30 132 1 16 85
M  V30 133 1 16 86
M  V30 134 1 16 115
M  V30 135 1 16 116
M  V30 136 1 17 96
M  V30 137 1 17 97
M  V30 138 1 17 104
M  V30 139 1 17 106
M  V30 140 1 18 19
M  V30 141 1 18 29
M  V30 142 1 18 72
M  V30 143 1 18 87
M  V30 144 1 18 107
M  V30 145 1 18 108
M  V30 146 1 18 117
M  V30 147 1 19 29
M  V30 148 1 19 72
M  V30 149 1 19 87
M  V30 150 1 19 107
M  V30 151 1 19 108
M  V30 152 1 19 117
M  V30 153 1 20 21
M  V30 154 1 20 73
M  V30 155 1 20 74
M  V30 156 1 20 82
M  V30 157 1 20 88
M  V30 158 1 20 109
M  V30 159 1 20 110
M  V30 160 1 21 23
M  V30 161 1 21 73
M  V30 162 1 21 74
M  V30 163 1 21 75
M  V30 164 1 21 81
M  V30 165 1 21 82
M  V30 166 1 21 83
M  V30 167 1 21 88
M  V30 168 1 21 109
M  V30 169 1 21 110
M  V30 170 1 21 111
M  V30 171 1 22 24
M  V30 172 1 22 30
M  V30 173 1 22 90
M  V30 174 1 22 92
M  V30 175 1 22 99
M  V30 176 1 22 101
M  V30 177 1 22 103
M  V30 178 1 22 112
M  V30 179 1 23 25
M  V30 180 1 23 74
M  V30 181 1 23 75
M  V30 182 1 23 76
M  V30 183 1 23 81
M  V30 184 1 23 82
M  V30 185 1 23 83
M  V30 186 1 23 84
M  V30 187 1 23 88
M  V30 188 1 23 110
M  V30 189 1 23 111
M  V30 190 1 23 113
M  V30 191 1 23 118
M  V30 192 1 24 26
M  V30 193 1 24 30
M  V30 194 1 24 31
M  V30 195 1 24 90
M  V30 196 1 24 92
M  V30 197 1 24 94
M  V30 198 1 24 101
M  V30 199 1 24 103
M  V30 200 1 24 105
M  V30 201 1 24 112
M  V30 202 1 24 114
M  V30 203 1 25 27
M  V30 204 1 25 75
M  V30 205 1 25 76
M  V30 206 1 25 77
M  V30 207 1 25 81
M  V30 208 1 25 83
M  V30 209 1 25 84
M  V30 210 1 25 85
M  V30 211 1 25 111
M  V30 212 1 25 113
M  V30 213 1 25 115
M  V30 214 1 25 118
M  V30 215 1 25 119
M  V30 216 1 26 31
M  V30 217 1 26 92
M  V30 218 1 26 94
M  V30 219 1 26 103
M  V30 220 1 26 105
M  V30 221 1 26 112
M  V30 222 1 26 114
M  V30 223 1 27 28
M  V30 224 1 27 76
M  V30 225 1 27 77
M  V30 226 1 27 78
M  V30 227 1 27 84
M  V30 228 1 27 85
M  V30 229 1 27 86
M  V30 230 1 27 113
M  V30 231 1 27 115
M  V30 232 1 27 116
M  V30 233 1 27 118
M  V30 234 1 27 119
M  V30 235 1 27 120
M  V30 236 1 28 77
M  V30 237 1 28 78
M  V30 238 1 28 85
M  V30 239 1 28 86
M  V30 240 1 28 115
M  V30 241 1 28 116
M  V30 242 1 28 119
M  V30 243 1 28 120
M  V30 244 1 29 72
M  V30 245 1 29 79
M  V30 246 1 29 80
M  V30 247 1 29 87
M  V30 248 1 29 117
M  V30 249 1 29 121
M  V30 250 1 30 90
M  V30 251 1 30 92
M  V30 252 1 30 99
M  V30 253 1 30 101
M  V30 254 1 30 103
M  V30 255 1 31 92
M  V30 256 1 31 94
M  V30 257 1 31 103
M  V30 258 1 31 105
M  V30 259 1 18 32
M  V30 260 1 19 32
M  V30 261 1 32 33
M  V30 262 1 32 107
M  V30 263 1 32 108
M  V30 264 1 32 117
M  V30 265 1 18 33
M  V30 266 1 19 33
M  V30 267 1 33 34
M  V30 268 1 33 107
M  V30 269 1 33 108
M  V30 270 1 33 117
M  V30 271 1 19 34
M  V30 272 1 20 34
M  V30 273 1 34 35
M  V30 274 1 34 108
M  V30 275 1 34 109
M  V30 276 1 20 35
M  V30 277 1 21 35
M  V30 278 1 35 36
M  V30 279 1 35 82
M  V30 280 1 35 109
M  V30 281 1 35 110
M  V30 282 1 20 36
M  V30 283 1 21 36
M  V30 284 1 23 36
M  V30 285 1 36 82
M  V30 286 1 36 83
M  V30 287 1 36 109
M  V30 288 1 36 110
M  V30 289 1 36 111
M  V30 290 1 19 37
M  V30 291 1 20 37
M  V30 292 1 33 37
M  V30 293 1 34 37
M  V30 294 1 35 37
M  V30 295 1 37 39
M  V30 296 1 37 46
M  V30 297 1 37 48
M  V30 298 1 37 49
M  V30 299 1 29 38
M  V30 300 1 38 47
M  V30 301 1 38 69
M  V30 302 1 38 70
M  V30 303 1 38 72
M  V30 304 1 38 79
M  V30 305 1 38 80
M  V30 306 1 1 39
M  V30 307 1 20 39
M  V30 308 1 21 39
M  V30 309 1 34 39
M  V30 310 1 35 39
M  V30 311 1 36 39
M  V30 312 1 39 40
M  V30 313 1 39 48
M  V30 314 1 39 49
M  V30 315 1 1 40
M  V30 316 1 20 40
M  V30 317 1 21 40
M  V30 318 1 23 40
M  V30 319 1 35 40
M  V30 320 1 36 40
M  V30 321 1 40 41
M  V30 322 1 40 49
M  V30 323 1 40 50
M  V30 324 1 1 41
M  V30 325 1 12 41
M  V30 326 1 21 41
M  V30 327 1 23 41
M  V30 328 1 25 41
M  V30 329 1 36 41
M  V30 330 1 41 50
M  V30 331 1 41 51
M  V30 332 1 42 43
M  V30 333 1 42 53
M  V30 334 1 42 64
M  V30 335 1 42 65
M  V30 336 1 42 66
M  V30 337 1 42 71
M  V30 338 1 42 74
M  V30 339 1 42 75
M  V30 340 1 42 76
M  V30 341 1 43 44
M  V30 342 1 43 53
M  V30 343 1 43 55
M  V30 344 1 43 64
M  V30 345 1 43 65
M  V30 346 1 43 66
M  V30 347 1 43 67
M  V30 348 1 43 71
M  V30 349 1 43 75
M  V30 350 1 43 76
M  V30 351 1 43 77
M  V30 352 1 43 89
M  V30 353 1 44 53
M  V30 354 1 44 55
M  V30 355 1 44 57
M  V30 356 1 44 64
M  V30 357 1 44 66
M  V30 358 1 44 67
M  V30 359 1 44 68
M  V30 360 1 44 76
M  V30 361 1 44 77
M  V30 362 1 44 78
M  V30 363 1 44 89
M  V30 364 1 44 91
M  V30 365 1 18 45
M  V30 366 1 19 45
M  V30 367 1 29 45
M  V30 368 1 32 45
M  V30 369 1 33 45
M  V30 370 1 45 46
M  V30 371 1 45 56
M  V30 372 1 45 58
M  V30 373 1 45 72
M  V30 374 1 18 46
M  V30 375 1 19 46
M  V30 376 1 29 46
M  V30 377 1 32 46
M  V30 378 1 33 46
M  V30 379 1 34 46
M  V30 380 1 46 48
M  V30 381 1 46 56
M  V30 382 1 46 58
M  V30 383 1 46 60
M  V30 384 1 46 72
M  V30 385 1 47 59
M  V30 386 1 47 69
M  V30 387 1 47 70
M  V30 388 1 47 79
M  V30 389 1 47 80
M  V30 390 1 47 93
M  V30 391 1 47 95
M  V30 392 1 19 48
M  V30 393 1 20 48
M  V30 394 1 33 48
M  V30 395 1 34 48
M  V30 396 1 35 48
M  V30 397 1 48 49
M  V30 398 1 48 58
M  V30 399 1 48 60
M  V30 400 1 48 72
M  V30 401 1 48 73
M  V30 402 1 1 49
M  V30 403 1 20 49
M  V30 404 1 21 49
M  V30 405 1 34 49
M  V30 406 1 35 49
M  V30 407 1 36 49
M  V30 408 1 49 60
M  V30 409 1 49 61
M  V30 410 1 49 73
M  V30 411 1 49 74
M  V30 412 1 12 50
M  V30 413 1 21 50
M  V30 414 1 23 50
M  V30 415 1 25 50
M  V30 416 1 36 50
M  V30 417 1 50 51
M  V30 418 1 50 61
M  V30 419 1 50 62
M  V30 420 1 50 63
M  V30 421 1 50 74
M  V30 422 1 50 75
M  V30 423 1 50 76
M  V30 424 1 8 51
M  V30 425 1 12 51
M  V30 426 1 14 51
M  V30 427 1 23 51
M  V30 428 1 25 51
M  V30 429 1 27 51
M  V30 430 1 51 52
M  V30 431 1 51 62
M  V30 432 1 51 63
M  V30 433 1 51 75
M  V30 434 1 51 76
M  V30 435 1 51 77
M  V30 436 1 8 52
M  V30 437 1 10 52
M  V30 438 1 12 52
M  V30 439 1 14 52
M  V30 440 1 16 52
M  V30 441 1 25 52
M  V30 442 1 27 52
M  V30 443 1 28 52
M  V30 444 1 52 54
M  V30 445 1 52 63
M  V30 446 1 52 76
M  V30 447 1 52 77
M  V30 448 1 52 78
M  V30 449 1 2 53
M  V30 450 1 3 53
M  V30 451 1 53 55
M  V30 452 1 53 64
M  V30 453 1 53 65
M  V30 454 1 53 66
M  V30 455 1 53 67
M  V30 456 1 53 71
M  V30 457 1 53 89
M  V30 458 1 53 98
M  V30 459 1 53 100
M  V30 460 1 8 54
M  V30 461 1 10 54
M  V30 462 1 14 54
M  V30 463 1 16 54
M  V30 464 1 27 54
M  V30 465 1 28 54
M  V30 466 1 54 77
M  V30 467 1 54 78
M  V30 468 1 2 55
M  V30 469 1 3 55
M  V30 470 1 4 55
M  V30 471 1 55 57
M  V30 472 1 55 64
M  V30 473 1 55 66
M  V30 474 1 55 67
M  V30 475 1 55 68
M  V30 476 1 55 89
M  V30 477 1 55 91
M  V30 478 1 55 98
M  V30 479 1 55 100
M  V30 480 1 55 102
M  V30 481 1 11 56
M  V30 482 1 18 56
M  V30 483 1 19 56
M  V30 484 1 29 56
M  V30 485 1 38 56
M  V30 486 1 56 58
M  V30 487 1 56 72
M  V30 488 1 56 79
M  V30 489 1 56 80
M  V30 490 1 3 57
M  V30 491 1 4 57
M  V30 492 1 57 67
M  V30 493 1 57 68
M  V30 494 1 57 89
M  V30 495 1 57 91
M  V30 496 1 57 100
M  V30 497 1 57 102
M  V30 498 1 11 58
M  V30 499 1 18 58
M  V30 500 1 19 58
M  V30 501 1 29 58
M  V30 502 1 38 58
M  V30 503 1 58 60
M  V30 504 1 58 72
M  V30 505 1 58 79
M  V30 506 1 58 80
M  V30 507 1 5 59
M  V30 508 1 6 59
M  V30 509 1 59 69
M  V30 510 1 59 70
M  V30 511 1 59 93
M  V30 512 1 59 95
M  V30 513 1 59 104
M  V30 514 1 59 106
M  V30 515 1 19 60
M  V30 516 1 20 60
M  V30 517 1 38 60
M  V30 518 1 60 72
M  V30 519 1 60 73
M  V30 520 1 60 80
M  V30 521 1 20 61
M  V30 522 1 21 61
M  V30 523 1 23 61
M  V30 524 1 42 61
M  V30 525 1 61 62
M  V30 526 1 61 65
M  V30 527 1 61 73
M  V30 528 1 61 74
M  V30 529 1 61 75
M  V30 530 1 21 62
M  V30 531 1 23 62
M  V30 532 1 25 62
M  V30 533 1 42 62
M  V30 534 1 43 62
M  V30 535 1 62 63
M  V30 536 1 62 65
M  V30 537 1 62 66
M  V30 538 1 62 74
M  V30 539 1 62 75
M  V30 540 1 62 76
M  V30 541 1 8 63
M  V30 542 1 23 63
M  V30 543 1 25 63
M  V30 544 1 27 63
M  V30 545 1 42 63
M  V30 546 1 43 63
M  V30 547 1 44 63
M  V30 548 1 63 65
M  V30 549 1 63 66
M  V30 550 1 63 67
M  V30 551 1 63 75
M  V30 552 1 63 76
M  V30 553 1 63 77
M  V30 554 1 64 89
M  V30 555 1 64 98
M  V30 556 1 64 100
M  V30 557 1 64 123
M  V30 558 1 64 124
M  V30 559 1 64 125
M  V30 560 1 64 135
M  V30 561 1 64 136
M  V30 562 1 64 147
M  V30 563 1 64 148
M  V30 564 1 64 149
M  V30 565 1 64 65
M  V30 566 1 65 66
M  V30 567 1 65 71
M  V30 568 1 65 81
M  V30 569 1 65 88
M  V30 570 1 65 118
M  V30 571 1 65 122
M  V30 572 1 65 123
M  V30 573 1 65 124
M  V30 574 1 65 146
M  V30 575 1 65 147
M  V30 576 1 65 148
M  V30 577 1 64 66
M  V30 578 1 66 67
M  V30 579 1 66 71
M  V30 580 1 66 81
M  V30 581 1 66 89
M  V30 582 1 66 118
M  V30 583 1 66 119
M  V30 584 1 66 123
M  V30 585 1 66 124
M  V30 586 1 66 125
M  V30 587 1 66 147
M  V30 588 1 66 148
M  V30 589 1 66 149
M  V30 590 1 64 67
M  V30 591 1 67 68
M  V30 592 1 67 89
M  V30 593 1 67 91
M  V30 594 1 67 118
M  V30 595 1 67 119
M  V30 596 1 67 120
M  V30 597 1 67 124
M  V30 598 1 67 125
M  V30 599 1 67 126
M  V30 600 1 67 148
M  V30 601 1 67 149
M  V30 602 1 67 151
M  V30 603 1 68 89
M  V30 604 1 68 91
M  V30 605 1 68 119
M  V30 606 1 68 120
M  V30 607 1 68 125
M  V30 608 1 68 126
M  V30 609 1 68 149
M  V30 610 1 68 151
M  V30 611 1 69 70
M  V30 612 1 69 93
M  V30 613 1 69 95
M  V30 614 1 69 121
M  V30 615 1 69 127
M  V30 616 1 69 128
M  V30 617 1 69 153
M  V30 618 1 70 93
M  V30 619 1 70 95
M  V30 620 1 70 121
M  V30 621 1 70 127
M  V30 622 1 70 128
M  V30 623 1 70 153
M  V30 624 1 70 155
M  V30 625 1 64 71
M  V30 626 1 71 98
M  V30 627 1 71 122
M  V30 628 1 71 123
M  V30 629 1 71 124
M  V30 630 1 71 135
M  V30 631 1 71 146
M  V30 632 1 71 147
M  V30 633 1 71 148
M  V30 634 1 72 79
M  V30 635 1 72 80
M  V30 636 1 72 87
M  V30 637 1 72 117
M  V30 638 1 72 121
M  V30 639 1 73 74
M  V30 640 1 73 82
M  V30 641 1 73 88
M  V30 642 1 73 122
M  V30 643 1 65 74
M  V30 644 1 74 75
M  V30 645 1 74 81
M  V30 646 1 74 82
M  V30 647 1 74 83
M  V30 648 1 74 88
M  V30 649 1 74 122
M  V30 650 1 74 123
M  V30 651 1 65 75
M  V30 652 1 66 75
M  V30 653 1 75 76
M  V30 654 1 75 81
M  V30 655 1 75 82
M  V30 656 1 75 83
M  V30 657 1 75 84
M  V30 658 1 75 88
M  V30 659 1 75 118
M  V30 660 1 75 122
M  V30 661 1 75 123
M  V30 662 1 75 124
M  V30 663 1 65 76
M  V30 664 1 66 76
M  V30 665 1 67 76
M  V30 666 1 76 77
M  V30 667 1 76 81
M  V30 668 1 76 83
M  V30 669 1 76 84
M  V30 670 1 76 85
M  V30 671 1 76 118
M  V30 672 1 76 119
M  V30 673 1 76 123
M  V30 674 1 76 124
M  V30 675 1 76 125
M  V30 676 1 66 77
M  V30 677 1 67 77
M  V30 678 1 68 77
M  V30 679 1 77 78
M  V30 680 1 77 84
M  V30 681 1 77 85
M  V30 682 1 77 86
M  V30 683 1 77 118
M  V30 684 1 77 119
M  V30 685 1 77 120
M  V30 686 1 77 124
M  V30 687 1 77 125
M  V30 688 1 77 126
M  V30 689 1 67 78
M  V30 690 1 68 78
M  V30 691 1 78 85
M  V30 692 1 78 86
M  V30 693 1 78 119
M  V30 694 1 78 120
M  V30 695 1 78 125
M  V30 696 1 78 126
M  V30 697 1 69 79
M  V30 698 1 70 79
M  V30 699 1 79 80
M  V30 700 1 79 87
M  V30 701 1 79 121
M  V30 702 1 79 127
M  V30 703 1 79 128
M  V30 704 1 69 80
M  V30 705 1 70 80
M  V30 706 1 80 87
M  V30 707 1 80 121
M  V30 708 1 80 127
M  V30 709 1 80 128
M  V30 710 1 81 118
M  V30 711 1 81 122
M  V30 712 1 81 123
M  V30 713 1 81 124
M  V30 714 1 81 158
M  V30 715 1 81 160
M  V30 716 1 81 162
M  V30 717 1 81 167
M  V30 718 1 81 169
M  V30 719 1 81 176
M  V30 720 1 81 178
M  V30 721 1 81 82
M  V30 722 1 82 83
M  V30 723 1 82 88
M  V30 724 1 82 134
M  V30 725 1 82 157
M  V30 726 1 82 167
M  V30 727 1 82 176
M  V30 728 1 81 83
M  V30 729 1 83 84
M  V30 730 1 83 88
M  V30 731 1 83 118
M  V30 732 1 83 157
M  V30 733 1 83 159
M  V30 734 1 83 167
M  V30 735 1 83 169
M  V30 736 1 83 176
M  V30 737 1 83 178
M  V30 738 1 81 84
M  V30 739 1 84 85
M  V30 740 1 84 118
M  V30 741 1 84 119
M  V30 742 1 84 157
M  V30 743 1 84 159
M  V30 744 1 84 161
M  V30 745 1 84 167
M  V30 746 1 84 169
M  V30 747 1 84 171
M  V30 748 1 84 176
M  V30 749 1 84 178
M  V30 750 1 84 180
M  V30 751 1 85 86
M  V30 752 1 85 118
M  V30 753 1 85 119
M  V30 754 1 85 120
M  V30 755 1 85 159
M  V30 756 1 85 161
M  V30 757 1 85 163
M  V30 758 1 85 169
M  V30 759 1 85 171
M  V30 760 1 85 173
M  V30 761 1 85 178
M  V30 762 1 85 180
M  V30 763 1 85 182
M  V30 764 1 86 119
M  V30 765 1 86 120
M  V30 766 1 86 161
M  V30 767 1 86 163
M  V30 768 1 86 171
M  V30 769 1 86 173
M  V30 770 1 86 180
M  V30 771 1 86 182
M  V30 772 1 87 121
M  V30 773 1 87 165
M  V30 774 1 87 184
M  V30 775 1 81 88
M  V30 776 1 88 122
M  V30 777 1 88 123
M  V30 778 1 88 158
M  V30 779 1 88 160
M  V30 780 1 88 167
M  V30 781 1 88 176
M  V30 782 1 89 91
M  V30 783 1 89 98
M  V30 784 1 89 100
M  V30 785 1 89 102
M  V30 786 1 89 124
M  V30 787 1 89 125
M  V30 788 1 89 126
M  V30 789 1 89 135
M  V30 790 1 89 136
M  V30 791 1 89 137
M  V30 792 1 89 148
M  V30 793 1 89 149
M  V30 794 1 89 151
M  V30 795 1 90 92
M  V30 796 1 90 99
M  V30 797 1 90 101
M  V30 798 1 90 103
M  V30 799 1 90 129
M  V30 800 1 90 130
M  V30 801 1 90 141
M  V30 802 1 90 142
M  V30 803 1 90 150
M  V30 804 1 90 152
M  V30 805 1 91 100
M  V30 806 1 91 102
M  V30 807 1 91 125
M  V30 808 1 91 126
M  V30 809 1 91 136
M  V30 810 1 91 137
M  V30 811 1 91 149
M  V30 812 1 91 151
M  V30 813 1 92 94
M  V30 814 1 92 101
M  V30 815 1 92 103
M  V30 816 1 92 105
M  V30 817 1 92 129
M  V30 818 1 92 130
M  V30 819 1 92 131
M  V30 820 1 92 141
M  V30 821 1 92 142
M  V30 822 1 92 143
M  V30 823 1 92 150
M  V30 824 1 92 152
M  V30 825 1 92 154
M  V30 826 1 93 95
M  V30 827 1 93 104
M  V30 828 1 93 106
M  V30 829 1 93 127
M  V30 830 1 93 128
M  V30 831 1 93 138
M  V30 832 1 93 139
M  V30 833 1 93 153
M  V30 834 1 94 103
M  V30 835 1 94 105
M  V30 836 1 94 130
M  V30 837 1 94 131
M  V30 838 1 94 142
M  V30 839 1 94 143
M  V30 840 1 94 152
M  V30 841 1 94 154
M  V30 842 1 95 104
M  V30 843 1 95 106
M  V30 844 1 95 127
M  V30 845 1 95 128
M  V30 846 1 95 138
M  V30 847 1 95 139
M  V30 848 1 95 140
M  V30 849 1 95 153
M  V30 850 1 95 155
M  V30 851 1 96 97
M  V30 852 1 96 144
M  V30 853 1 96 145
M  V30 854 1 96 156
M  V30 855 1 97 144
M  V30 856 1 97 145
M  V30 857 1 97 156
M  V30 858 1 98 100
M  V30 859 1 98 112
M  V30 860 1 98 135
M  V30 861 1 98 136
M  V30 862 1 98 141
M  V30 863 1 98 142
M  V30 864 1 98 147
M  V30 865 1 98 148
M  V30 866 1 98 149
M  V30 867 1 99 101
M  V30 868 1 99 129
M  V30 869 1 99 150
M  V30 870 1 100 102
M  V30 871 1 100 112
M  V30 872 1 100 114
M  V30 873 1 100 135
M  V30 874 1 100 136
M  V30 875 1 100 137
M  V30 876 1 100 141
M  V30 877 1 100 142
M  V30 878 1 100 143
M  V30 879 1 100 148
M  V30 880 1 100 149
M  V30 881 1 100 151
M  V30 882 1 101 103
M  V30 883 1 101 129
M  V30 884 1 101 130
M  V30 885 1 101 150
M  V30 886 1 101 152
M  V30 887 1 102 112
M  V30 888 1 102 114
M  V30 889 1 102 136
M  V30 890 1 102 137
M  V30 891 1 102 142
M  V30 892 1 102 143
M  V30 893 1 102 149
M  V30 894 1 102 151
M  V30 895 1 103 105
M  V30 896 1 103 129
M  V30 897 1 103 130
M  V30 898 1 103 131
M  V30 899 1 103 150
M  V30 900 1 103 152
M  V30 901 1 103 154
M  V30 902 1 104 106
M  V30 903 1 104 138
M  V30 904 1 104 139
M  V30 905 1 104 144
M  V30 906 1 104 145
M  V30 907 1 104 153
M  V30 908 1 105 130
M  V30 909 1 105 131
M  V30 910 1 105 152
M  V30 911 1 105 154
M  V30 912 1 106 138
M  V30 913 1 106 139
M  V30 914 1 106 140
M  V30 915 1 106 144
M  V30 916 1 106 145
M  V30 917 1 106 153
M  V30 918 1 106 155
M  V30 919 1 107 108
M  V30 920 1 107 117
M  V30 921 1 107 132
M  V30 922 1 107 133
M  V30 923 1 107 165
M  V30 924 1 108 117
M  V30 925 1 108 132
M  V30 926 1 108 133
M  V30 927 1 108 165
M  V30 928 1 82 109
M  V30 929 1 109 110
M  V30 930 1 109 134
M  V30 931 1 82 110
M  V30 932 1 83 110
M  V30 933 1 110 111
M  V30 934 1 110 134
M  V30 935 1 110 157
M  V30 936 1 110 167
M  V30 937 1 82 111
M  V30 938 1 83 111
M  V30 939 1 84 111
M  V30 940 1 111 113
M  V30 941 1 111 157
M  V30 942 1 111 159
M  V30 943 1 111 167
M  V30 944 1 111 169
M  V30 945 1 90 112
M  V30 946 1 92 112
M  V30 947 1 94 112
M  V30 948 1 112 114
M  V30 949 1 112 135
M  V30 950 1 112 136
M  V30 951 1 112 137
M  V30 952 1 112 141
M  V30 953 1 112 142
M  V30 954 1 112 143
M  V30 955 1 112 150
M  V30 956 1 112 152
M  V30 957 1 112 154
M  V30 958 1 83 113
M  V30 959 1 84 113
M  V30 960 1 85 113
M  V30 961 1 113 115
M  V30 962 1 113 157
M  V30 963 1 113 159
M  V30 964 1 113 161
M  V30 965 1 113 167
M  V30 966 1 113 169
M  V30 967 1 113 171
M  V30 968 1 92 114
M  V30 969 1 94 114
M  V30 970 1 114 136
M  V30 971 1 114 137
M  V30 972 1 114 142
M  V30 973 1 114 143
M  V30 974 1 114 152
M  V30 975 1 114 154
M  V30 976 1 84 115
M  V30 977 1 85 115
M  V30 978 1 86 115
M  V30 979 1 115 116
M  V30 980 1 115 159
M  V30 981 1 115 161
M  V30 982 1 115 163
M  V30 983 1 115 169
M  V30 984 1 115 171
M  V30 985 1 115 173
M  V30 986 1 85 116
M  V30 987 1 86 116
M  V30 988 1 116 161
M  V30 989 1 116 163
M  V30 990 1 116 171
M  V30 991 1 116 173
M  V30 992 1 87 117
M  V30 993 1 117 132
M  V30 994 1 117 133
M  V30 995 1 117 165
M  V30 996 1 118 119
M  V30 997 1 118 123
M  V30 998 1 118 124
M  V30 999 1 118 125
M  V30 1000 1 118 160
M  V30 1001 1 118 162
M  V30 1002 1 118 164
M  V30 1003 1 118 167
M  V30 1004 1 118 169
M  V30 1005 1 118 171
M  V30 1006 1 118 176
M  V30 1007 1 118 178
M  V30 1008 1 118 180
M  V30 1009 1 119 120
M  V30 1010 1 119 124
M  V30 1011 1 119 125
M  V30 1012 1 119 126
M  V30 1013 1 119 162
M  V30 1014 1 119 164
M  V30 1015 1 119 166
M  V30 1016 1 119 169
M  V30 1017 1 119 171
M  V30 1018 1 119 173
M  V30 1019 1 119 178
M  V30 1020 1 119 180
M  V30 1021 1 119 182
M  V30 1022 1 120 125
M  V30 1023 1 120 126
M  V30 1024 1 120 164
M  V30 1025 1 120 166
M  V30 1026 1 120 171
M  V30 1027 1 120 173
M  V30 1028 1 120 180
M  V30 1029 1 120 182
M  V30 1030 1 121 127
M  V30 1031 1 121 128
M  V30 1032 1 121 184
M  V30 1033 1 122 123
M  V30 1034 1 122 146
M  V30 1035 1 122 147
M  V30 1036 1 122 158
M  V30 1037 1 122 160
M  V30 1038 1 122 168
M  V30 1039 1 122 170
M  V30 1040 1 122 176
M  V30 1041 1 123 124
M  V30 1042 1 123 146
M  V30 1043 1 123 147
M  V30 1044 1 123 148
M  V30 1045 1 123 158
M  V30 1046 1 123 160
M  V30 1047 1 123 162
M  V30 1048 1 123 168
M  V30 1049 1 123 170
M  V30 1050 1 123 172
M  V30 1051 1 123 176
M  V30 1052 1 123 178
M  V30 1053 1 124 125
M  V30 1054 1 124 147
M  V30 1055 1 124 148
M  V30 1056 1 124 149
M  V30 1057 1 124 160
M  V30 1058 1 124 162
M  V30 1059 1 124 164
M  V30 1060 1 124 170
M  V30 1061 1 124 172
M  V30 1062 1 124 174
M  V30 1063 1 124 176
M  V30 1064 1 124 178
M  V30 1065 1 124 180
M  V30 1066 1 125 126
M  V30 1067 1 125 148
M  V30 1068 1 125 149
M  V30 1069 1 125 151
M  V30 1070 1 125 162
M  V30 1071 1 125 164
M  V30 1072 1 125 166
M  V30 1073 1 125 172
M  V30 1074 1 125 174
M  V30 1075 1 125 175
M  V30 1076 1 125 178
M  V30 1077 1 125 180
M  V30 1078 1 125 182
M  V30 1079 1 126 149
M  V30 1080 1 126 151
M  V30 1081 1 126 164
M  V30 1082 1 126 166
M  V30 1083 1 126 174
M  V30 1084 1 126 175
M  V30 1085 1 126 180
M  V30 1086 1 126 182
M  V30 1087 1 127 128
M  V30 1088 1 127 153
M  V30 1089 1 127 184
M  V30 1090 1 128 153
M  V30 1091 1 128 155
M  V30 1092 1 128 184
M  V30 1093 1 129 130
M  V30 1094 1 129 197
M  V30 1095 1 129 198
M  V30 1096 1 129 205
M  V30 1097 1 130 131
M  V30 1098 1 130 197
M  V30 1099 1 130 198
M  V30 1100 1 130 200
M  V30 1101 1 130 205
M  V30 1102 1 130 207
M  V30 1103 1 131 198
M  V30 1104 1 131 200
M  V30 1105 1 131 205
M  V30 1106 1 131 207
M  V30 1107 1 132 133
M  V30 1108 1 132 165
M  V30 1109 1 132 209
M  V30 1110 1 132 211
M  V30 1111 1 132 223
M  V30 1112 1 133 165
M  V30 1113 1 133 209
M  V30 1114 1 133 211
M  V30 1115 1 133 213
M  V30 1116 1 133 223
M  V30 1117 1 134 213
M  V30 1118 1 134 214
M  V30 1119 1 135 136
M  V30 1120 1 135 141
M  V30 1121 1 135 142
M  V30 1122 1 135 170
M  V30 1123 1 135 172
M  V30 1124 1 135 174
M  V30 1125 1 135 179
M  V30 1126 1 135 181
M  V30 1127 1 135 183
M  V30 1128 1 135 187
M  V30 1129 1 135 188
M  V30 1130 1 135 189
M  V30 1131 1 136 137
M  V30 1132 1 136 141
M  V30 1133 1 136 142
M  V30 1134 1 136 143
M  V30 1135 1 136 172
M  V30 1136 1 136 174
M  V30 1137 1 136 175
M  V30 1138 1 136 181
M  V30 1139 1 136 183
M  V30 1140 1 136 185
M  V30 1141 1 136 188
M  V30 1142 1 136 189
M  V30 1143 1 136 190
M  V30 1144 1 137 142
M  V30 1145 1 137 143
M  V30 1146 1 137 174
M  V30 1147 1 137 175
M  V30 1148 1 137 183
M  V30 1149 1 137 185
M  V30 1150 1 137 189
M  V30 1151 1 137 190
M  V30 1152 1 138 139
M  V30 1153 1 138 144
M  V30 1154 1 138 145
M  V30 1155 1 138 191
M  V30 1156 1 139 140
M  V30 1157 1 139 144
M  V30 1158 1 139 145
M  V30 1159 1 139 191
M  V30 1160 1 139 192
M  V30 1161 1 140 145
M  V30 1162 1 140 186
M  V30 1163 1 140 191
M  V30 1164 1 140 192
M  V30 1165 1 141 142
M  V30 1166 1 141 150
M  V30 1167 1 141 152
M  V30 1168 1 141 179
M  V30 1169 1 141 181
M  V30 1170 1 141 183
M  V30 1171 1 141 187
M  V30 1172 1 141 188
M  V30 1173 1 141 189
M  V30 1174 1 141 197
M  V30 1175 1 141 198
M  V30 1176 1 142 143
M  V30 1177 1 142 150
M  V30 1178 1 142 152
M  V30 1179 1 142 154
M  V30 1180 1 142 181
M  V30 1181 1 142 183
M  V30 1182 1 142 185
M  V30 1183 1 142 188
M  V30 1184 1 142 189
M  V30 1185 1 142 190
M  V30 1186 1 142 197
M  V30 1187 1 142 198
M  V30 1188 1 142 200
M  V30 1189 1 143 152
M  V30 1190 1 143 154
M  V30 1191 1 143 183
M  V30 1192 1 143 185
M  V30 1193 1 143 189
M  V30 1194 1 143 190
M  V30 1195 1 143 198
M  V30 1196 1 143 200
M  V30 1197 1 144 145
M  V30 1198 1 144 156
M  V30 1199 1 144 191
M  V30 1200 1 145 156
M  V30 1201 1 145 191
M  V30 1202 1 145 192
M  V30 1203 1 146 147
M  V30 1204 1 146 158
M  V30 1205 1 146 160
M  V30 1206 1 146 168
M  V30 1207 1 146 170
M  V30 1208 1 146 177
M  V30 1209 1 146 179
M  V30 1210 1 135 147
M  V30 1211 1 147 148
M  V30 1212 1 147 158
M  V30 1213 1 147 160
M  V30 1214 1 147 162
M  V30 1215 1 147 168
M  V30 1216 1 147 170
M  V30 1217 1 147 172
M  V30 1218 1 147 177
M  V30 1219 1 147 179
M  V30 1220 1 147 181
M  V30 1221 1 135 148
M  V30 1222 1 136 148
M  V30 1223 1 148 149
M  V30 1224 1 148 160
M  V30 1225 1 148 162
M  V30 1226 1 148 164
M  V30 1227 1 148 170
M  V30 1228 1 148 172
M  V30 1229 1 148 174
M  V30 1230 1 148 179
M  V30 1231 1 148 181
M  V30 1232 1 148 183
M  V30 1233 1 135 149
M  V30 1234 1 136 149
M  V30 1235 1 137 149
M  V30 1236 1 149 151
M  V30 1237 1 149 162
M  V30 1238 1 149 164
M  V30 1239 1 149 166
M  V30 1240 1 149 172
M  V30 1241 1 149 174
M  V30 1242 1 149 175
M  V30 1243 1 149 181
M  V30 1244 1 149 183
M  V30 1245 1 149 185
M  V30 1246 1 129 150
M  V30 1247 1 130 150
M  V30 1248 1 150 152
M  V30 1249 1 150 187
M  V30 1250 1 150 188
M  V30 1251 1 150 189
M  V30 1252 1 150 197
M  V30 1253 1 150 198
M  V30 1254 1 150 205
M  V30 1255 1 136 151
M  V30 1256 1 137 151
M  V30 1257 1 151 164
M  V30 1258 1 151 166
M  V30 1259 1 151 174
M  V30 1260 1 151 175
M  V30 1261 1 151 183
M  V30 1262 1 151 185
M  V30 1263 1 129 152
M  V30 1264 1 130 152
M  V30 1265 1 131 152
M  V30 1266 1 152 154
M  V30 1267 1 152 188
M  V30 1268 1 152 189
M  V30 1269 1 152 190
M  V30 1270 1 152 197
M  V30 1271 1 152 198
M  V30 1272 1 152 200
M  V30 1273 1 152 205
M  V30 1274 1 152 207
M  V30 1275 1 138 153
M  V30 1276 1 139 153
M  V30 1277 1 130 154
M  V30 1278 1 131 154
M  V30 1279 1 154 189
M  V30 1280 1 154 190
M  V30 1281 1 154 198
M  V30 1282 1 154 200
M  V30 1283 1 154 205
M  V30 1284 1 154 207
M  V30 1285 1 139 155
M  V30 1286 1 140 155
M  V30 1287 1 155 186
M  V30 1288 1 156 191
M  V30 1289 1 156 192
M  V30 1290 1 157 159
M  V30 1291 1 157 167
M  V30 1292 1 157 169
M  V30 1293 1 157 199
M  V30 1294 1 157 215
M  V30 1295 1 157 217
M  V30 1296 1 158 160
M  V30 1297 1 158 168
M  V30 1298 1 158 170
M  V30 1299 1 158 193
M  V30 1300 1 158 204
M  V30 1301 1 158 216
M  V30 1302 1 158 218
M  V30 1303 1 159 161
M  V30 1304 1 159 167
M  V30 1305 1 159 169
M  V30 1306 1 159 171
M  V30 1307 1 159 199
M  V30 1308 1 159 201
M  V30 1309 1 159 215
M  V30 1310 1 159 217
M  V30 1311 1 159 219
M  V30 1312 1 160 162
M  V30 1313 1 160 168
M  V30 1314 1 160 170
M  V30 1315 1 160 172
M  V30 1316 1 160 193
M  V30 1317 1 160 194
M  V30 1318 1 160 204
M  V30 1319 1 160 206
M  V30 1320 1 160 216
M  V30 1321 1 160 218
M  V30 1322 1 160 220
M  V30 1323 1 161 163
M  V30 1324 1 161 169
M  V30 1325 1 161 171
M  V30 1326 1 161 173
M  V30 1327 1 161 199
M  V30 1328 1 161 201
M  V30 1329 1 161 202
M  V30 1330 1 161 217
M  V30 1331 1 161 219
M  V30 1332 1 161 221
M  V30 1333 1 162 164
M  V30 1334 1 162 170
M  V30 1335 1 162 172
M  V30 1336 1 162 174
M  V30 1337 1 162 193
M  V30 1338 1 162 194
M  V30 1339 1 162 195
M  V30 1340 1 162 204
M  V30 1341 1 162 206
M  V30 1342 1 162 208
M  V30 1343 1 162 218
M  V30 1344 1 162 220
M  V30 1345 1 162 222
M  V30 1346 1 163 171
M  V30 1347 1 163 173
M  V30 1348 1 163 201
M  V30 1349 1 163 202
M  V30 1350 1 163 219
M  V30 1351 1 163 221
M  V30 1352 1 164 166
M  V30 1353 1 164 172
M  V30 1354 1 164 174
M  V30 1355 1 164 175
M  V30 1356 1 164 194
M  V30 1357 1 164 195
M  V30 1358 1 164 196
M  V30 1359 1 164 206
M  V30 1360 1 164 208
M  V30 1361 1 164 210
M  V30 1362 1 164 220
M  V30 1363 1 164 222
M  V30 1364 1 164 224
M  V30 1365 1 165 203
M  V30 1366 1 165 209
M  V30 1367 1 165 211
M  V30 1368 1 165 223
M  V30 1369 1 166 174
M  V30 1370 1 166 175
M  V30 1371 1 166 195
M  V30 1372 1 166 196
M  V30 1373 1 166 208
M  V30 1374 1 166 210
M  V30 1375 1 166 222
M  V30 1376 1 166 224
M  V30 1377 1 167 169
M  V30 1378 1 167 176
M  V30 1379 1 167 178
M  V30 1380 1 167 199
M  V30 1381 1 167 204
M  V30 1382 1 167 206
M  V30 1383 1 167 215
M  V30 1384 1 167 217
M  V30 1385 1 168 170
M  V30 1386 1 168 177
M  V30 1387 1 168 179
M  V30 1388 1 168 193
M  V30 1389 1 168 216
M  V30 1390 1 168 218
M  V30 1391 1 168 226
M  V30 1392 1 168 227
M  V30 1393 1 169 171
M  V30 1394 1 169 176
M  V30 1395 1 169 178
M  V30 1396 1 169 180
M  V30 1397 1 169 199
M  V30 1398 1 169 201
M  V30 1399 1 169 204
M  V30 1400 1 169 206
M  V30 1401 1 169 208
M  V30 1402 1 169 215
M  V30 1403 1 169 217
M  V30 1404 1 169 219
M  V30 1405 1 170 172
M  V30 1406 1 170 177
M  V30 1407 1 170 179
M  V30 1408 1 170 181
M  V30 1409 1 170 193
M  V30 1410 1 170 194
M  V30 1411 1 170 216
M  V30 1412 1 170 218
M  V30 1413 1 170 220
M  V30 1414 1 170 226
M  V30 1415 1 170 227
M  V30 1416 1 170 228
M  V30 1417 1 171 173
M  V30 1418 1 171 178
M  V30 1419 1 171 180
M  V30 1420 1 171 182
M  V30 1421 1 171 199
M  V30 1422 1 171 201
M  V30 1423 1 171 202
M  V30 1424 1 171 206
M  V30 1425 1 171 208
M  V30 1426 1 171 210
M  V30 1427 1 171 217
M  V30 1428 1 171 219
M  V30 1429 1 171 221
M  V30 1430 1 172 174
M  V30 1431 1 172 179
M  V30 1432 1 172 181
M  V30 1433 1 172 183
M  V30 1434 1 172 193
M  V30 1435 1 172 194
M  V30 1436 1 172 195
M  V30 1437 1 172 218
M  V30 1438 1 172 220
M  V30 1439 1 172 222
M  V30 1440 1 172 227
M  V30 1441 1 172 228
M  V30 1442 1 172 229
M  V30 1443 1 173 180
M  V30 1444 1 173 182
M  V30 1445 1 173 201
M  V30 1446 1 173 202
M  V30 1447 1 173 208
M  V30 1448 1 173 210
M  V30 1449 1 173 219
M  V30 1450 1 173 221
M  V30 1451 1 174 175
M  V30 1452 1 174 181
M  V30 1453 1 174 183
M  V30 1454 1 174 185
M  V30 1455 1 174 194
M  V30 1456 1 174 195
M  V30 1457 1 174 196
M  V30 1458 1 174 220
M  V30 1459 1 174 222
M  V30 1460 1 174 224
M  V30 1461 1 174 228
M  V30 1462 1 174 229
M  V30 1463 1 174 230
M  V30 1464 1 175 183
M  V30 1465 1 175 185
M  V30 1466 1 175 195
M  V30 1467 1 175 196
M  V30 1468 1 175 222
M  V30 1469 1 175 224
M  V30 1470 1 175 229
M  V30 1471 1 175 230
M  V30 1472 1 158 176
M  V30 1473 1 160 176
M  V30 1474 1 162 176
M  V30 1475 1 176 178
M  V30 1476 1 176 199
M  V30 1477 1 176 204
M  V30 1478 1 176 206
M  V30 1479 1 176 216
M  V30 1480 1 176 218
M  V30 1481 1 176 220
M  V30 1482 1 177 179
M  V30 1483 1 177 186
M  V30 1484 1 177 187
M  V30 1485 1 177 193
M  V30 1486 1 177 226
M  V30 1487 1 177 227
M  V30 1488 1 177 231
M  V30 1489 1 160 178
M  V30 1490 1 162 178
M  V30 1491 1 164 178
M  V30 1492 1 178 180
M  V30 1493 1 178 199
M  V30 1494 1 178 201
M  V30 1495 1 178 204
M  V30 1496 1 178 206
M  V30 1497 1 178 208
M  V30 1498 1 178 218
M  V30 1499 1 178 220
M  V30 1500 1 178 222
M  V30 1501 1 179 181
M  V30 1502 1 179 187
M  V30 1503 1 179 188
M  V30 1504 1 179 193
M  V30 1505 1 179 194
M  V30 1506 1 179 226
M  V30 1507 1 179 227
M  V30 1508 1 179 228
M  V30 1509 1 179 231
M  V30 1510 1 179 232
M  V30 1511 1 162 180
M  V30 1512 1 164 180
M  V30 1513 1 166 180
M  V30 1514 1 180 182
M  V30 1515 1 180 199
M  V30 1516 1 180 201
M  V30 1517 1 180 202
M  V30 1518 1 180 206
M  V30 1519 1 180 208
M  V30 1520 1 180 210
M  V30 1521 1 180 220
M  V30 1522 1 180 222
M  V30 1523 1 180 224
M  V30 1524 1 181 183
M  V30 1525 1 181 187
M  V30 1526 1 181 188
M  V30 1527 1 181 189
M  V30 1528 1 181 193
M  V30 1529 1 181 194
M  V30 1530 1 181 195
M  V30 1531 1 181 227
M  V30 1532 1 181 228
M  V30 1533 1 181 229
M  V30 1534 1 181 231
M  V30 1535 1 181 232
M  V30 1536 1 181 233
M  V30 1537 1 164 182
M  V30 1538 1 166 182
M  V30 1539 1 182 201
M  V30 1540 1 182 202
M  V30 1541 1 182 208
M  V30 1542 1 182 210
M  V30 1543 1 182 222
M  V30 1544 1 182 224
M  V30 1545 1 183 185
M  V30 1546 1 183 188
M  V30 1547 1 183 189
M  V30 1548 1 183 190
M  V30 1549 1 183 194
M  V30 1550 1 183 195
M  V30 1551 1 183 196
M  V30 1552 1 183 228
M  V30 1553 1 183 229
M  V30 1554 1 183 230
M  V30 1555 1 183 232
M  V30 1556 1 183 233
M  V30 1557 1 183 234
M  V30 1558 1 184 203
M  V30 1559 1 184 212
M  V30 1560 1 185 189
M  V30 1561 1 185 190
M  V30 1562 1 185 195
M  V30 1563 1 185 196
M  V30 1564 1 185 229
M  V30 1565 1 185 230
M  V30 1566 1 185 233
M  V30 1567 1 185 234
M  V30 1568 1 186 192
M  V30 1569 1 186 226
M  V30 1570 1 187 188
M  V30 1571 1 187 197
M  V30 1572 1 187 226
M  V30 1573 1 187 227
M  V30 1574 1 187 228
M  V30 1575 1 187 231
M  V30 1576 1 187 232
M  V30 1577 1 187 236
M  V30 1578 1 187 237
M  V30 1579 1 188 189
M  V30 1580 1 188 197
M  V30 1581 1 188 198
M  V30 1582 1 188 227
M  V30 1583 1 188 228
M  V30 1584 1 188 229
M  V30 1585 1 188 231
M  V30 1586 1 188 232
M  V30 1587 1 188 233
M  V30 1588 1 188 236
M  V30 1589 1 188 237
M  V30 1590 1 188 238
M  V30 1591 1 189 190
M  V30 1592 1 189 197
M  V30 1593 1 189 198
M  V30 1594 1 189 200
M  V30 1595 1 189 228
M  V30 1596 1 189 229
M  V30 1597 1 189 230
M  V30 1598 1 189 232
M  V30 1599 1 189 233
M  V30 1600 1 189 234
M  V30 1601 1 189 237
M  V30 1602 1 189 238
M  V30 1603 1 189 239
M  V30 1604 1 190 198
M  V30 1605 1 190 200
M  V30 1606 1 190 229
M  V30 1607 1 190 230
M  V30 1608 1 190 233
M  V30 1609 1 190 234
M  V30 1610 1 190 238
M  V30 1611 1 190 239
M  V30 1612 1 191 192
M  V30 1613 1 191 225
M  V30 1614 1 191 235
M  V30 1615 1 192 225
M  V30 1616 1 193 194
M  V30 1617 1 193 226
M  V30 1618 1 193 227
M  V30 1619 1 193 228
M  V30 1620 1 193 274
M  V30 1621 1 193 275
M  V30 1622 1 193 276
M  V30 1623 1 193 282
M  V30 1624 1 193 283
M  V30 1625 1 193 284
M  V30 1626 1 193 291
M  V30 1627 1 193 292
M  V30 1628 1 194 195
M  V30 1629 1 194 227
M  V30 1630 1 194 228
M  V30 1631 1 194 229
M  V30 1632 1 194 275
M  V30 1633 1 194 276
M  V30 1634 1 194 277
M  V30 1635 1 194 283
M  V30 1636 1 194 284
M  V30 1637 1 194 285
M  V30 1638 1 194 291
M  V30 1639 1 194 292
M  V30 1640 1 194 294
M  V30 1641 1 195 196
M  V30 1642 1 195 228
M  V30 1643 1 195 229
M  V30 1644 1 195 230
M  V30 1645 1 195 276
M  V30 1646 1 195 277
M  V30 1647 1 195 279
M  V30 1648 1 195 284
M  V30 1649 1 195 285
M  V30 1650 1 195 287
M  V30 1651 1 195 292
M  V30 1652 1 195 294
M  V30 1653 1 195 296
M  V30 1654 1 196 229
M  V30 1655 1 196 230
M  V30 1656 1 196 277
M  V30 1657 1 196 279
M  V30 1658 1 196 285
M  V30 1659 1 196 287
M  V30 1660 1 196 294
M  V30 1661 1 196 296
M  V30 1662 1 197 198
M  V30 1663 1 197 205
M  V30 1664 1 197 231
M  V30 1665 1 197 232
M  V30 1666 1 197 233
M  V30 1667 1 197 236
M  V30 1668 1 197 237
M  V30 1669 1 197 238
M  V30 1670 1 197 249
M  V30 1671 1 197 250
M  V30 1672 1 198 200
M  V30 1673 1 198 205
M  V30 1674 1 198 207
M  V30 1675 1 198 232
M  V30 1676 1 198 233
M  V30 1677 1 198 234
M  V30 1678 1 198 237
M  V30 1679 1 198 238
M  V30 1680 1 198 239
M  V30 1681 1 198 249
M  V30 1682 1 198 250
M  V30 1683 1 199 201
M  V30 1684 1 199 204
M  V30 1685 1 199 206
M  V30 1686 1 199 208
M  V30 1687 1 199 244
M  V30 1688 1 199 245
M  V30 1689 1 199 246
M  V30 1690 1 199 256
M  V30 1691 1 199 257
M  V30 1692 1 199 258
M  V30 1693 1 199 264
M  V30 1694 1 199 265
M  V30 1695 1 199 266
M  V30 1696 1 200 205
M  V30 1697 1 200 207
M  V30 1698 1 200 233
M  V30 1699 1 200 234
M  V30 1700 1 200 238
M  V30 1701 1 200 239
M  V30 1702 1 200 250
M  V30 1703 1 201 202
M  V30 1704 1 201 206
M  V30 1705 1 201 208
M  V30 1706 1 201 210
M  V30 1707 1 201 245
M  V30 1708 1 201 246
M  V30 1709 1 201 247
M  V30 1710 1 201 257
M  V30 1711 1 201 258
M  V30 1712 1 201 259
M  V30 1713 1 201 265
M  V30 1714 1 201 266
M  V30 1715 1 201 267
M  V30 1716 1 202 208
M  V30 1717 1 202 210
M  V30 1718 1 202 246
M  V30 1719 1 202 247
M  V30 1720 1 202 258
M  V30 1721 1 202 259
M  V30 1722 1 202 266
M  V30 1723 1 202 267
M  V30 1724 1 203 212
M  V30 1725 1 203 240
M  V30 1726 1 203 241
M  V30 1727 1 203 248
M  V30 1728 1 203 260
M  V30 1729 1 203 261
M  V30 1730 1 204 206
M  V30 1731 1 204 216
M  V30 1732 1 204 218
M  V30 1733 1 204 220
M  V30 1734 1 204 243
M  V30 1735 1 204 244
M  V30 1736 1 204 245
M  V30 1737 1 204 264
M  V30 1738 1 204 265
M  V30 1739 1 204 274
M  V30 1740 1 204 275
M  V30 1741 1 204 276
M  V30 1742 1 205 207
M  V30 1743 1 205 237
M  V30 1744 1 205 238
M  V30 1745 1 205 239
M  V30 1746 1 205 249
M  V30 1747 1 205 250
M  V30 1748 1 206 208
M  V30 1749 1 206 218
M  V30 1750 1 206 220
M  V30 1751 1 206 222
M  V30 1752 1 206 244
M  V30 1753 1 206 245
M  V30 1754 1 206 246
M  V30 1755 1 206 264
M  V30 1756 1 206 265
M  V30 1757 1 206 266
M  V30 1758 1 206 275
M  V30 1759 1 206 276
M  V30 1760 1 206 277
M  V30 1761 1 207 238
M  V30 1762 1 207 239
M  V30 1763 1 207 250
M  V30 1764 1 208 210
M  V30 1765 1 208 220
M  V30 1766 1 208 222
M  V30 1767 1 208 224
M  V30 1768 1 208 245
M  V30 1769 1 208 246
M  V30 1770 1 208 247
M  V30 1771 1 208 265
M  V30 1772 1 208 266
M  V30 1773 1 208 267
M  V30 1774 1 208 276
M  V30 1775 1 208 277
M  V30 1776 1 208 279
M  V30 1777 1 209 211
M  V30 1778 1 209 223
M  V30 1779 1 209 251
M  V30 1780 1 209 252
M  V30 1781 1 209 260
M  V30 1782 1 209 261
M  V30 1783 1 210 222
M  V30 1784 1 210 224
M  V30 1785 1 210 246
M  V30 1786 1 210 247
M  V30 1787 1 210 266
M  V30 1788 1 210 267
M  V30 1789 1 210 277
M  V30 1790 1 210 279
M  V30 1791 1 211 213
M  V30 1792 1 211 223
M  V30 1793 1 211 251
M  V30 1794 1 211 252
M  V30 1795 1 211 253
M  V30 1796 1 211 260
M  V30 1797 1 211 261
M  V30 1798 1 211 262
M  V30 1799 1 212 240
M  V30 1800 1 212 241
M  V30 1801 1 212 248
M  V30 1802 1 213 214
M  V30 1803 1 213 252
M  V30 1804 1 213 253
M  V30 1805 1 213 254
M  V30 1806 1 213 261
M  V30 1807 1 213 262
M  V30 1808 1 213 263
M  V30 1809 1 214 253
M  V30 1810 1 214 254
M  V30 1811 1 214 255
M  V30 1812 1 214 262
M  V30 1813 1 214 263
M  V30 1814 1 199 215
M  V30 1815 1 215 217
M  V30 1816 1 215 255
M  V30 1817 1 215 256
M  V30 1818 1 215 257
M  V30 1819 1 215 264
M  V30 1820 1 215 265
M  V30 1821 1 193 216
M  V30 1822 1 216 218
M  V30 1823 1 216 242
M  V30 1824 1 216 243
M  V30 1825 1 216 244
M  V30 1826 1 216 274
M  V30 1827 1 216 275
M  V30 1828 1 216 282
M  V30 1829 1 216 283
M  V30 1830 1 199 217
M  V30 1831 1 201 217
M  V30 1832 1 217 219
M  V30 1833 1 217 256
M  V30 1834 1 217 257
M  V30 1835 1 217 258
M  V30 1836 1 217 264
M  V30 1837 1 217 265
M  V30 1838 1 217 266
M  V30 1839 1 193 218
M  V30 1840 1 194 218
M  V30 1841 1 218 220
M  V30 1842 1 218 243
M  V30 1843 1 218 244
M  V30 1844 1 218 245
M  V30 1845 1 218 274
M  V30 1846 1 218 275
M  V30 1847 1 218 276
M  V30 1848 1 218 282
M  V30 1849 1 218 283
M  V30 1850 1 218 284
M  V30 1851 1 199 219
M  V30 1852 1 201 219
M  V30 1853 1 202 219
M  V30 1854 1 219 221
M  V30 1855 1 219 257
M  V30 1856 1 219 258
M  V30 1857 1 219 259
M  V30 1858 1 219 265
M  V30 1859 1 219 266
M  V30 1860 1 219 267
M  V30 1861 1 193 220
M  V30 1862 1 194 220
M  V30 1863 1 195 220
M  V30 1864 1 220 222
M  V30 1865 1 220 244
M  V30 1866 1 220 245
M  V30 1867 1 220 246
M  V30 1868 1 220 275
M  V30 1869 1 220 276
M  V30 1870 1 220 277
M  V30 1871 1 220 283
M  V30 1872 1 220 284
M  V30 1873 1 220 285
M  V30 1874 1 201 221
M  V30 1875 1 202 221
M  V30 1876 1 221 258
M  V30 1877 1 221 259
M  V30 1878 1 221 266
M  V30 1879 1 221 267
M  V30 1880 1 194 222
M  V30 1881 1 195 222
M  V30 1882 1 196 222
M  V30 1883 1 222 224
M  V30 1884 1 222 245
M  V30 1885 1 222 246
M  V30 1886 1 222 247
M  V30 1887 1 222 276
M  V30 1888 1 222 277
M  V30 1889 1 222 279
M  V30 1890 1 222 284
M  V30 1891 1 222 285
M  V30 1892 1 222 287
M  V30 1893 1 203 223
M  V30 1894 1 223 240
M  V30 1895 1 223 241
M  V30 1896 1 223 251
M  V30 1897 1 223 252
M  V30 1898 1 223 260
M  V30 1899 1 223 261
M  V30 1900 1 195 224
M  V30 1901 1 196 224
M  V30 1902 1 224 246
M  V30 1903 1 224 247
M  V30 1904 1 224 277
M  V30 1905 1 224 279
M  V30 1906 1 224 285
M  V30 1907 1 224 287
M  V30 1908 1 225 290
M  V30 1909 1 226 227
M  V30 1910 1 226 231
M  V30 1911 1 226 282
M  V30 1912 1 226 283
M  V30 1913 1 226 291
M  V30 1914 1 227 228
M  V30 1915 1 227 231
M  V30 1916 1 227 232
M  V30 1917 1 227 278
M  V30 1918 1 227 282
M  V30 1919 1 227 283
M  V30 1920 1 227 284
M  V30 1921 1 227 291
M  V30 1922 1 227 292
M  V30 1923 1 228 229
M  V30 1924 1 228 231
M  V30 1925 1 228 232
M  V30 1926 1 228 233
M  V30 1927 1 228 278
M  V30 1928 1 228 280
M  V30 1929 1 228 283
M  V30 1930 1 228 284
M  V30 1931 1 228 285
M  V30 1932 1 228 291
M  V30 1933 1 228 292
M  V30 1934 1 228 294
M  V30 1935 1 229 230
M  V30 1936 1 229 232
M  V30 1937 1 229 233
M  V30 1938 1 229 234
M  V30 1939 1 229 278
M  V30 1940 1 229 280
M  V30 1941 1 229 281
M  V30 1942 1 229 284
M  V30 1943 1 229 285
M  V30 1944 1 229 287
M  V30 1945 1 229 292
M  V30 1946 1 229 294
M  V30 1947 1 229 296
M  V30 1948 1 230 233
M  V30 1949 1 230 234
M  V30 1950 1 230 280
M  V30 1951 1 230 281
M  V30 1952 1 230 285
M  V30 1953 1 230 287
M  V30 1954 1 230 294
M  V30 1955 1 230 296
M  V30 1956 1 231 232
M  V30 1957 1 231 236
M  V30 1958 1 231 237
M  V30 1959 1 231 278
M  V30 1960 1 231 286
M  V30 1961 1 231 291
M  V30 1962 1 231 292
M  V30 1963 1 232 233
M  V30 1964 1 232 236
M  V30 1965 1 232 237
M  V30 1966 1 232 238
M  V30 1967 1 232 278
M  V30 1968 1 232 280
M  V30 1969 1 232 286
M  V30 1970 1 232 288
M  V30 1971 1 232 291
M  V30 1972 1 232 292
M  V30 1973 1 232 294
M  V30 1974 1 233 234
M  V30 1975 1 233 237
M  V30 1976 1 233 238
M  V30 1977 1 233 239
M  V30 1978 1 233 278
M  V30 1979 1 233 280
M  V30 1980 1 233 281
M  V30 1981 1 233 286
M  V30 1982 1 233 288
M  V30 1983 1 233 289
M  V30 1984 1 233 292
M  V30 1985 1 233 294
M  V30 1986 1 233 296
M  V30 1987 1 234 238
M  V30 1988 1 234 239
M  V30 1989 1 234 280
M  V30 1990 1 234 281
M  V30 1991 1 234 288
M  V30 1992 1 234 289
M  V30 1993 1 234 294
M  V30 1994 1 234 296
M  V30 1995 1 225 235
M  V30 1996 1 235 290
M  V30 1997 1 236 237
M  V30 1998 1 236 249
M  V30 1999 1 236 278
M  V30 2000 1 236 286
M  V30 2001 1 236 293
M  V30 2002 1 236 295
M  V30 2003 1 237 238
M  V30 2004 1 237 249
M  V30 2005 1 237 250
M  V30 2006 1 237 278
M  V30 2007 1 237 280
M  V30 2008 1 237 286
M  V30 2009 1 237 288
M  V30 2010 1 237 293
M  V30 2011 1 237 295
M  V30 2012 1 237 297
M  V30 2013 1 238 239
M  V30 2014 1 238 249
M  V30 2015 1 238 250
M  V30 2016 1 238 269
M  V30 2017 1 238 278
M  V30 2018 1 238 280
M  V30 2019 1 238 281
M  V30 2020 1 238 286
M  V30 2021 1 238 288
M  V30 2022 1 238 289
M  V30 2023 1 238 295
M  V30 2024 1 238 297
M  V30 2025 1 239 250
M  V30 2026 1 239 269
M  V30 2027 1 239 280
M  V30 2028 1 239 281
M  V30 2029 1 239 288
M  V30 2030 1 239 289
M  V30 2031 1 239 297
M  V30 2032 1 240 241
M  V30 2033 1 240 248
M  V30 2034 1 240 268
M  V30 2035 1 240 298
M  V30 2036 1 241 248
M  V30 2037 1 241 268
M  V30 2038 1 241 298
M  V30 2039 1 241 299
M  V30 2040 1 242 243
M  V30 2041 1 242 274
M  V30 2042 1 242 299
M  V30 2043 1 242 300
M  V30 2044 1 242 301
M  V30 2045 1 242 321
M  V30 2046 1 242 322
M  V30 2047 1 242 333
M  V30 2048 1 242 334
M  V30 2049 1 243 244
M  V30 2050 1 243 274
M  V30 2051 1 243 275
M  V30 2052 1 243 300
M  V30 2053 1 243 301
M  V30 2054 1 243 311
M  V30 2055 1 243 321
M  V30 2056 1 243 322
M  V30 2057 1 243 323
M  V30 2058 1 243 333
M  V30 2059 1 243 334
M  V30 2060 1 243 335
M  V30 2061 1 244 245
M  V30 2062 1 244 274
M  V30 2063 1 244 275
M  V30 2064 1 244 276
M  V30 2065 1 244 301
M  V30 2066 1 244 311
M  V30 2067 1 244 313
M  V30 2068 1 244 322
M  V30 2069 1 244 323
M  V30 2070 1 244 325
M  V30 2071 1 244 334
M  V30 2072 1 244 335
M  V30 2073 1 244 336
M  V30 2074 1 245 246
M  V30 2075 1 245 275
M  V30 2076 1 245 276
M  V30 2077 1 245 277
M  V30 2078 1 245 311
M  V30 2079 1 245 313
M  V30 2080 1 245 315
M  V30 2081 1 245 323
M  V30 2082 1 245 325
M  V30 2083 1 245 327
M  V30 2084 1 245 335
M  V30 2085 1 245 336
M  V30 2086 1 245 338
M  V30 2087 1 246 247
M  V30 2088 1 246 276
M  V30 2089 1 246 277
M  V30 2090 1 246 279
M  V30 2091 1 246 309
M  V30 2092 1 246 313
M  V30 2093 1 246 315
M  V30 2094 1 246 317
M  V30 2095 1 246 325
M  V30 2096 1 246 327
M  V30 2097 1 246 329
M  V30 2098 1 246 336
M  V30 2099 1 246 338
M  V30 2100 1 247 277
M  V30 2101 1 247 279
M  V30 2102 1 247 309
M  V30 2103 1 247 315
M  V30 2104 1 247 317
M  V30 2105 1 247 327
M  V30 2106 1 247 329
M  V30 2107 1 247 338
M  V30 2108 1 249 250
M  V30 2109 1 249 286
M  V30 2110 1 249 288
M  V30 2111 1 249 293
M  V30 2112 1 249 295
M  V30 2113 1 249 297
M  V30 2114 1 250 269
M  V30 2115 1 250 286
M  V30 2116 1 250 288
M  V30 2117 1 250 289
M  V30 2118 1 250 295
M  V30 2119 1 250 297
M  V30 2120 1 251 252
M  V30 2121 1 251 260
M  V30 2122 1 251 261
M  V30 2123 1 251 268
M  V30 2124 1 251 270
M  V30 2125 1 251 298
M  V30 2126 1 252 253
M  V30 2127 1 252 260
M  V30 2128 1 252 261
M  V30 2129 1 252 262
M  V30 2130 1 252 268
M  V30 2131 1 252 270
M  V30 2132 1 252 298
M  V30 2133 1 252 299
M  V30 2134 1 253 254
M  V30 2135 1 253 261
M  V30 2136 1 253 262
M  V30 2137 1 253 263
M  V30 2138 1 253 270
M  V30 2139 1 253 298
M  V30 2140 1 253 299
M  V30 2141 1 253 300
M  V30 2142 1 254 255
M  V30 2143 1 254 262
M  V30 2144 1 254 263
M  V30 2145 1 254 299
M  V30 2146 1 254 300
M  V30 2147 1 254 301
M  V30 2148 1 255 256
M  V30 2149 1 255 263
M  V30 2150 1 255 264
M  V30 2151 1 255 300
M  V30 2152 1 255 301
M  V30 2153 1 255 311
M  V30 2154 1 256 257
M  V30 2155 1 256 264
M  V30 2156 1 256 265
M  V30 2157 1 256 271
M  V30 2158 1 256 301
M  V30 2159 1 256 311
M  V30 2160 1 256 313
M  V30 2161 1 257 258
M  V30 2162 1 257 264
M  V30 2163 1 257 265
M  V30 2164 1 257 266
M  V30 2165 1 257 271
M  V30 2166 1 257 272
M  V30 2167 1 257 311
M  V30 2168 1 257 313
M  V30 2169 1 257 315
M  V30 2170 1 258 259
M  V30 2171 1 258 265
M  V30 2172 1 258 266
M  V30 2173 1 258 267
M  V30 2174 1 258 271
M  V30 2175 1 258 272
M  V30 2176 1 258 273
M  V30 2177 1 258 313
M  V30 2178 1 258 315
M  V30 2179 1 258 317
M  V30 2180 1 259 266
M  V30 2181 1 259 267
M  V30 2182 1 259 272
M  V30 2183 1 259 273
M  V30 2184 1 259 315
M  V30 2185 1 259 317
M  V30 2186 1 240 260
M  V30 2187 1 241 260
M  V30 2188 1 260 261
M  V30 2189 1 260 268
M  V30 2190 1 260 270
M  V30 2191 1 260 298
M  V30 2192 1 240 261
M  V30 2193 1 241 261
M  V30 2194 1 261 262
M  V30 2195 1 261 268
M  V30 2196 1 261 270
M  V30 2197 1 261 298
M  V30 2198 1 261 299
M  V30 2199 1 241 262
M  V30 2200 1 242 262
M  V30 2201 1 262 263
M  V30 2202 1 262 270
M  V30 2203 1 262 298
M  V30 2204 1 262 299
M  V30 2205 1 262 300
M  V30 2206 1 262 321
M  V30 2207 1 242 263
M  V30 2208 1 243 263
M  V30 2209 1 263 299
M  V30 2210 1 263 300
M  V30 2211 1 263 301
M  V30 2212 1 263 321
M  V30 2213 1 263 322
M  V30 2214 1 243 264
M  V30 2215 1 244 264
M  V30 2216 1 245 264
M  V30 2217 1 264 265
M  V30 2218 1 264 271
M  V30 2219 1 264 301
M  V30 2220 1 264 311
M  V30 2221 1 264 313
M  V30 2222 1 264 322
M  V30 2223 1 264 323
M  V30 2224 1 264 325
M  V30 2225 1 244 265
M  V30 2226 1 245 265
M  V30 2227 1 246 265
M  V30 2228 1 265 266
M  V30 2229 1 265 271
M  V30 2230 1 265 272
M  V30 2231 1 265 311
M  V30 2232 1 265 313
M  V30 2233 1 265 315
M  V30 2234 1 265 323
M  V30 2235 1 265 325
M  V30 2236 1 265 327
M  V30 2237 1 245 266
M  V30 2238 1 246 266
M  V30 2239 1 247 266
M  V30 2240 1 266 267
M  V30 2241 1 266 271
M  V30 2242 1 266 272
M  V30 2243 1 266 273
M  V30 2244 1 266 313
M  V30 2245 1 266 315
M  V30 2246 1 266 317
M  V30 2247 1 266 325
M  V30 2248 1 266 327
M  V30 2249 1 266 329
M  V30 2250 1 246 267
M  V30 2251 1 247 267
M  V30 2252 1 267 272
M  V30 2253 1 267 273
M  V30 2254 1 267 315
M  V30 2255 1 267 317
M  V30 2256 1 267 327
M  V30 2257 1 267 329
M  V30 2258 1 268 298
M  V30 2259 1 269 302
M  V30 2260 1 269 308
M  V30 2261 1 269 349
M  V30 2262 1 269 351
M  V30 2263 1 268 270
M  V30 2264 1 270 298
M  V30 2265 1 270 299
M  V30 2266 1 271 272
M  V30 2267 1 271 311
M  V30 2268 1 271 313
M  V30 2269 1 271 315
M  V30 2270 1 271 340
M  V30 2271 1 271 355
M  V30 2272 1 271 357
M  V30 2273 1 271 360
M  V30 2274 1 271 361
M  V30 2275 1 272 273
M  V30 2276 1 272 313
M  V30 2277 1 272 315
M  V30 2278 1 272 317
M  V30 2279 1 272 340
M  V30 2280 1 272 342
M  V30 2281 1 272 355
M  V30 2282 1 272 357
M  V30 2283 1 272 358
M  V30 2284 1 272 361
M  V30 2285 1 273 315
M  V30 2286 1 273 317
M  V30 2287 1 273 340
M  V30 2288 1 273 342
M  V30 2289 1 273 357
M  V30 2290 1 273 358
M  V30 2291 1 274 275
M  V30 2292 1 274 282
M  V30 2293 1 274 283
M  V30 2294 1 274 310
M  V30 2295 1 274 312
M  V30 2296 1 274 314
M  V30 2297 1 274 321
M  V30 2298 1 274 322
M  V30 2299 1 274 323
M  V30 2300 1 274 333
M  V30 2301 1 274 334
M  V30 2302 1 274 335
M  V30 2303 1 275 276
M  V30 2304 1 275 282
M  V30 2305 1 275 283
M  V30 2306 1 275 284
M  V30 2307 1 275 312
M  V30 2308 1 275 314
M  V30 2309 1 275 316
M  V30 2310 1 275 322
M  V30 2311 1 275 323
M  V30 2312 1 275 325
M  V30 2313 1 275 334
M  V30 2314 1 275 335
M  V30 2315 1 275 336
M  V30 2316 1 276 277
M  V30 2317 1 276 283
M  V30 2318 1 276 284
M  V30 2319 1 276 285
M  V30 2320 1 276 314
M  V30 2321 1 276 316
M  V30 2322 1 276 318
M  V30 2323 1 276 323
M  V30 2324 1 276 325
M  V30 2325 1 276 327
M  V30 2326 1 276 335
M  V30 2327 1 276 336
M  V30 2328 1 276 338
M  V30 2329 1 277 279
M  V30 2330 1 277 284
M  V30 2331 1 277 285
M  V30 2332 1 277 287
M  V30 2333 1 277 309
M  V30 2334 1 277 316
M  V30 2335 1 277 318
M  V30 2336 1 277 319
M  V30 2337 1 277 325
M  V30 2338 1 277 327
M  V30 2339 1 277 329
M  V30 2340 1 277 336
M  V30 2341 1 277 338
M  V30 2342 1 278 280
M  V30 2343 1 278 286
M  V30 2344 1 278 288
M  V30 2345 1 278 303
M  V30 2346 1 278 306
M  V30 2347 1 278 307
M  V30 2348 1 278 308
M  V30 2349 1 278 326
M  V30 2350 1 278 328
M  V30 2351 1 278 330
M  V30 2352 1 278 337
M  V30 2353 1 278 339
M  V30 2354 1 279 285
M  V30 2355 1 279 287
M  V30 2356 1 279 309
M  V30 2357 1 279 318
M  V30 2358 1 279 319
M  V30 2359 1 279 327
M  V30 2360 1 279 329
M  V30 2361 1 279 338
M  V30 2362 1 280 281
M  V30 2363 1 280 286
M  V30 2364 1 280 288
M  V30 2365 1 280 289
M  V30 2366 1 280 302
M  V30 2367 1 280 303
M  V30 2368 1 280 304
M  V30 2369 1 280 307
M  V30 2370 1 280 308
M  V30 2371 1 280 328
M  V30 2372 1 280 330
M  V30 2373 1 280 331
M  V30 2374 1 280 339
M  V30 2375 1 281 288
M  V30 2376 1 281 289
M  V30 2377 1 281 302
M  V30 2378 1 281 303
M  V30 2379 1 281 304
M  V30 2380 1 281 308
M  V30 2381 1 281 330
M  V30 2382 1 281 331
M  V30 2383 1 282 283
M  V30 2384 1 282 291
M  V30 2385 1 282 310
M  V30 2386 1 282 312
M  V30 2387 1 282 314
M  V30 2388 1 282 324
M  V30 2389 1 282 326
M  V30 2390 1 282 333
M  V30 2391 1 282 334
M  V30 2392 1 282 335
M  V30 2393 1 283 284
M  V30 2394 1 283 291
M  V30 2395 1 283 292
M  V30 2396 1 283 312
M  V30 2397 1 283 314
M  V30 2398 1 283 316
M  V30 2399 1 283 324
M  V30 2400 1 283 326
M  V30 2401 1 283 328
M  V30 2402 1 283 334
M  V30 2403 1 283 335
M  V30 2404 1 283 336
M  V30 2405 1 284 285
M  V30 2406 1 284 291
M  V30 2407 1 284 292
M  V30 2408 1 284 294
M  V30 2409 1 284 314
M  V30 2410 1 284 316
M  V30 2411 1 284 318
M  V30 2412 1 284 326
M  V30 2413 1 284 328
M  V30 2414 1 284 330
M  V30 2415 1 284 335
M  V30 2416 1 284 336
M  V30 2417 1 284 338
M  V30 2418 1 285 287
M  V30 2419 1 285 292
M  V30 2420 1 285 294
M  V30 2421 1 285 296
M  V30 2422 1 285 309
M  V30 2423 1 285 316
M  V30 2424 1 285 318
M  V30 2425 1 285 319
M  V30 2426 1 285 328
M  V30 2427 1 285 330
M  V30 2428 1 285 331
M  V30 2429 1 285 336
M  V30 2430 1 285 338
M  V30 2431 1 286 288
M  V30 2432 1 286 293
M  V30 2433 1 286 295
M  V30 2434 1 286 297
M  V30 2435 1 286 303
M  V30 2436 1 286 306
M  V30 2437 1 286 307
M  V30 2438 1 286 308
M  V30 2439 1 286 337
M  V30 2440 1 286 339
M  V30 2441 1 286 345
M  V30 2442 1 286 347
M  V30 2443 1 286 349
M  V30 2444 1 287 294
M  V30 2445 1 287 296
M  V30 2446 1 287 309
M  V30 2447 1 287 318
M  V30 2448 1 287 319
M  V30 2449 1 287 330
M  V30 2450 1 287 331
M  V30 2451 1 287 338
M  V30 2452 1 269 288
M  V30 2453 1 288 289
M  V30 2454 1 288 295
M  V30 2455 1 288 297
M  V30 2456 1 288 302
M  V30 2457 1 288 303
M  V30 2458 1 288 304
M  V30 2459 1 288 307
M  V30 2460 1 288 308
M  V30 2461 1 288 339
M  V30 2462 1 288 347
M  V30 2463 1 288 349
M  V30 2464 1 288 351
M  V30 2465 1 269 289
M  V30 2466 1 289 297
M  V30 2467 1 289 302
M  V30 2468 1 289 303
M  V30 2469 1 289 304
M  V30 2470 1 289 308
M  V30 2471 1 289 349
M  V30 2472 1 289 351
M  V30 2473 1 290 305
M  V30 2474 1 290 341
M  V30 2475 1 290 343
M  V30 2476 1 278 291
M  V30 2477 1 291 292
M  V30 2478 1 291 312
M  V30 2479 1 291 314
M  V30 2480 1 291 316
M  V30 2481 1 291 324
M  V30 2482 1 291 326
M  V30 2483 1 291 328
M  V30 2484 1 291 337
M  V30 2485 1 291 339
M  V30 2486 1 278 292
M  V30 2487 1 280 292
M  V30 2488 1 292 294
M  V30 2489 1 292 303
M  V30 2490 1 292 314
M  V30 2491 1 292 316
M  V30 2492 1 292 318
M  V30 2493 1 292 326
M  V30 2494 1 292 328
M  V30 2495 1 292 330
M  V30 2496 1 292 337
M  V30 2497 1 292 339
M  V30 2498 1 293 295
M  V30 2499 1 293 306
M  V30 2500 1 293 307
M  V30 2501 1 293 345
M  V30 2502 1 293 347
M  V30 2503 1 278 294
M  V30 2504 1 280 294
M  V30 2505 1 281 294
M  V30 2506 1 294 296
M  V30 2507 1 294 303
M  V30 2508 1 294 304
M  V30 2509 1 294 316
M  V30 2510 1 294 318
M  V30 2511 1 294 319
M  V30 2512 1 294 328
M  V30 2513 1 294 330
M  V30 2514 1 294 331
M  V30 2515 1 294 339
M  V30 2516 1 295 297
M  V30 2517 1 295 306
M  V30 2518 1 295 307
M  V30 2519 1 295 308
M  V30 2520 1 295 345
M  V30 2521 1 295 347
M  V30 2522 1 295 349
M  V30 2523 1 280 296
M  V30 2524 1 281 296
M  V30 2525 1 296 303
M  V30 2526 1 296 304
M  V30 2527 1 296 318
M  V30 2528 1 296 319
M  V30 2529 1 296 330
M  V30 2530 1 296 331
M  V30 2531 1 269 297
M  V30 2532 1 297 302
M  V30 2533 1 297 307
M  V30 2534 1 297 308
M  V30 2535 1 297 347
M  V30 2536 1 297 349
M  V30 2537 1 297 351
M  V30 2538 1 298 299
M  V30 2539 1 299 300
M  V30 2540 1 299 321
M  V30 2541 1 299 344
M  V30 2542 1 299 359
M  V30 2543 1 300 301
M  V30 2544 1 300 321
M  V30 2545 1 300 322
M  V30 2546 1 300 344
M  V30 2547 1 300 346
M  V30 2548 1 300 359
M  V30 2549 1 301 311
M  V30 2550 1 301 321
M  V30 2551 1 301 322
M  V30 2552 1 301 323
M  V30 2553 1 301 344
M  V30 2554 1 301 346
M  V30 2555 1 301 348
M  V30 2556 1 301 359
M  V30 2557 1 301 360
M  V30 2558 1 302 349
M  V30 2559 1 302 351
M  V30 2560 1 302 387
M  V30 2561 1 302 388
M  V30 2562 1 302 394
M  V30 2563 1 302 396
M  V30 2564 1 302 405
M  V30 2565 1 302 407
M  V30 2566 1 302 303
M  V30 2567 1 303 304
M  V30 2568 1 303 307
M  V30 2569 1 303 308
M  V30 2570 1 303 362
M  V30 2571 1 303 370
M  V30 2572 1 303 386
M  V30 2573 1 303 393
M  V30 2574 1 303 394
M  V30 2575 1 303 396
M  V30 2576 1 303 403
M  V30 2577 1 303 405
M  V30 2578 1 303 407
M  V30 2579 1 302 304
M  V30 2580 1 304 308
M  V30 2581 1 304 362
M  V30 2582 1 304 386
M  V30 2583 1 304 394
M  V30 2584 1 304 396
M  V30 2585 1 304 405
M  V30 2586 1 304 407
M  V30 2587 1 305 341
M  V30 2588 1 305 343
M  V30 2589 1 305 389
M  V30 2590 1 305 399
M  V30 2591 1 305 409
M  V30 2592 1 306 307
M  V30 2593 1 306 345
M  V30 2594 1 306 347
M  V30 2595 1 306 385
M  V30 2596 1 306 392
M  V30 2597 1 306 393
M  V30 2598 1 306 403
M  V30 2599 1 306 413
M  V30 2600 1 307 308
M  V30 2601 1 307 345
M  V30 2602 1 307 347
M  V30 2603 1 307 349
M  V30 2604 1 307 385
M  V30 2605 1 307 387
M  V30 2606 1 307 392
M  V30 2607 1 307 393
M  V30 2608 1 307 394
M  V30 2609 1 307 403
M  V30 2610 1 307 405
M  V30 2611 1 307 413
M  V30 2612 1 302 308
M  V30 2613 1 308 347
M  V30 2614 1 308 349
M  V30 2615 1 308 351
M  V30 2616 1 308 385
M  V30 2617 1 308 387
M  V30 2618 1 308 388
M  V30 2619 1 308 393
M  V30 2620 1 308 394
M  V30 2621 1 308 396
M  V30 2622 1 308 403
M  V30 2623 1 308 405
M  V30 2624 1 308 407
M  V30 2625 1 309 318
M  V30 2626 1 309 319
M  V30 2627 1 309 352
M  V30 2628 1 309 353
M  V30 2629 1 309 364
M  V30 2630 1 309 365
M  V30 2631 1 309 372
M  V30 2632 1 309 373
M  V30 2633 1 310 312
M  V30 2634 1 310 324
M  V30 2635 1 310 354
M  V30 2636 1 310 366
M  V30 2637 1 310 367
M  V30 2638 1 310 368
M  V30 2639 1 310 374
M  V30 2640 1 310 375
M  V30 2641 1 311 313
M  V30 2642 1 311 322
M  V30 2643 1 311 323
M  V30 2644 1 311 325
M  V30 2645 1 311 346
M  V30 2646 1 311 348
M  V30 2647 1 311 350
M  V30 2648 1 311 355
M  V30 2649 1 311 360
M  V30 2650 1 311 361
M  V30 2651 1 312 314
M  V30 2652 1 312 324
M  V30 2653 1 312 326
M  V30 2654 1 312 354
M  V30 2655 1 312 356
M  V30 2656 1 312 367
M  V30 2657 1 312 368
M  V30 2658 1 312 369
M  V30 2659 1 312 374
M  V30 2660 1 312 375
M  V30 2661 1 312 376
M  V30 2662 1 313 315
M  V30 2663 1 313 323
M  V30 2664 1 313 325
M  V30 2665 1 313 327
M  V30 2666 1 313 340
M  V30 2667 1 313 348
M  V30 2668 1 313 350
M  V30 2669 1 313 352
M  V30 2670 1 313 355
M  V30 2671 1 313 357
M  V30 2672 1 313 360
M  V30 2673 1 313 361
M  V30 2674 1 314 316
M  V30 2675 1 314 324
M  V30 2676 1 314 326
M  V30 2677 1 314 328
M  V30 2678 1 314 354
M  V30 2679 1 314 356
M  V30 2680 1 314 363
M  V30 2681 1 314 368
M  V30 2682 1 314 369
M  V30 2683 1 314 370
M  V30 2684 1 314 371
M  V30 2685 1 314 375
M  V30 2686 1 314 376
M  V30 2687 1 315 317
M  V30 2688 1 315 325
M  V30 2689 1 315 327
M  V30 2690 1 315 329
M  V30 2691 1 315 340
M  V30 2692 1 315 342
M  V30 2693 1 315 350
M  V30 2694 1 315 352
M  V30 2695 1 315 353
M  V30 2696 1 315 355
M  V30 2697 1 315 357
M  V30 2698 1 315 358
M  V30 2699 1 315 361
M  V30 2700 1 316 318
M  V30 2701 1 316 326
M  V30 2702 1 316 328
M  V30 2703 1 316 330
M  V30 2704 1 316 356
M  V30 2705 1 316 362
M  V30 2706 1 316 363
M  V30 2707 1 316 364
M  V30 2708 1 316 369
M  V30 2709 1 316 370
M  V30 2710 1 316 371
M  V30 2711 1 316 372
M  V30 2712 1 316 376
M  V30 2713 1 317 327
M  V30 2714 1 317 329
M  V30 2715 1 317 340
M  V30 2716 1 317 342
M  V30 2717 1 317 352
M  V30 2718 1 317 353
M  V30 2719 1 317 357
M  V30 2720 1 317 358
M  V30 2721 1 318 319
M  V30 2722 1 318 328
M  V30 2723 1 318 330
M  V30 2724 1 318 331
M  V30 2725 1 318 362
M  V30 2726 1 318 363
M  V30 2727 1 318 364
M  V30 2728 1 318 365
M  V30 2729 1 318 370
M  V30 2730 1 318 371
M  V30 2731 1 318 372
M  V30 2732 1 318 373
M  V30 2733 1 318 386
M  V30 2734 1 319 330
M  V30 2735 1 319 331
M  V30 2736 1 319 362
M  V30 2737 1 319 364
M  V30 2738 1 319 365
M  V30 2739 1 319 372
M  V30 2740 1 319 373
M  V30 2741 1 319 386
M  V30 2742 1 320 332
M  V30 2743 1 320 389
M  V30 2744 1 321 322
M  V30 2745 1 321 333
M  V30 2746 1 321 334
M  V30 2747 1 321 344
M  V30 2748 1 321 346
M  V30 2749 1 321 354
M  V30 2750 1 321 359
M  V30 2751 1 322 323
M  V30 2752 1 322 333
M  V30 2753 1 322 334
M  V30 2754 1 322 335
M  V30 2755 1 322 344
M  V30 2756 1 322 346
M  V30 2757 1 322 348
M  V30 2758 1 322 354
M  V30 2759 1 322 356
M  V30 2760 1 322 359
M  V30 2761 1 322 360
M  V30 2762 1 323 325
M  V30 2763 1 323 334
M  V30 2764 1 323 335
M  V30 2765 1 323 336
M  V30 2766 1 323 346
M  V30 2767 1 323 348
M  V30 2768 1 323 350
M  V30 2769 1 323 354
M  V30 2770 1 323 356
M  V30 2771 1 323 360
M  V30 2772 1 323 361
M  V30 2773 1 323 371
M  V30 2774 1 324 326
M  V30 2775 1 324 337
M  V30 2776 1 324 367
M  V30 2777 1 324 368
M  V30 2778 1 324 369
M  V30 2779 1 324 374
M  V30 2780 1 324 375
M  V30 2781 1 324 376
M  V30 2782 1 324 391
M  V30 2783 1 324 392
M  V30 2784 1 325 327
M  V30 2785 1 325 335
M  V30 2786 1 325 336
M  V30 2787 1 325 338
M  V30 2788 1 325 340
M  V30 2789 1 325 348
M  V30 2790 1 325 350
M  V30 2791 1 325 352
M  V30 2792 1 325 356
M  V30 2793 1 325 360
M  V30 2794 1 325 361
M  V30 2795 1 325 371
M  V30 2796 1 325 372
M  V30 2797 1 326 328
M  V30 2798 1 326 337
M  V30 2799 1 326 339
M  V30 2800 1 326 363
M  V30 2801 1 326 368
M  V30 2802 1 326 369
M  V30 2803 1 326 370
M  V30 2804 1 326 375
M  V30 2805 1 326 376
M  V30 2806 1 326 392
M  V30 2807 1 326 393
M  V30 2808 1 309 327
M  V30 2809 1 327 329
M  V30 2810 1 327 336
M  V30 2811 1 327 338
M  V30 2812 1 327 340
M  V30 2813 1 327 342
M  V30 2814 1 327 350
M  V30 2815 1 327 352
M  V30 2816 1 327 353
M  V30 2817 1 327 361
M  V30 2818 1 327 371
M  V30 2819 1 327 372
M  V30 2820 1 327 373
M  V30 2821 1 303 328
M  V30 2822 1 328 330
M  V30 2823 1 328 337
M  V30 2824 1 328 339
M  V30 2825 1 328 362
M  V30 2826 1 328 363
M  V30 2827 1 328 364
M  V30 2828 1 328 369
M  V30 2829 1 328 370
M  V30 2830 1 328 376
M  V30 2831 1 328 392
M  V30 2832 1 328 393
M  V30 2833 1 328 394
M  V30 2834 1 309 329
M  V30 2835 1 329 338
M  V30 2836 1 329 340
M  V30 2837 1 329 342
M  V30 2838 1 329 352
M  V30 2839 1 329 353
M  V30 2840 1 329 372
M  V30 2841 1 329 373
M  V30 2842 1 303 330
M  V30 2843 1 304 330
M  V30 2844 1 330 331
M  V30 2845 1 330 339
M  V30 2846 1 330 362
M  V30 2847 1 330 363
M  V30 2848 1 330 364
M  V30 2849 1 330 365
M  V30 2850 1 330 370
M  V30 2851 1 330 386
M  V30 2852 1 330 393
M  V30 2853 1 330 394
M  V30 2854 1 330 396
M  V30 2855 1 303 331
M  V30 2856 1 304 331
M  V30 2857 1 331 362
M  V30 2858 1 331 364
M  V30 2859 1 331 365
M  V30 2860 1 331 386
M  V30 2861 1 331 394
M  V30 2862 1 331 396
M  V30 2863 1 305 332
M  V30 2864 1 332 389
M  V30 2865 1 332 399
M  V30 2866 1 310 333
M  V30 2867 1 312 333
M  V30 2868 1 333 334
M  V30 2869 1 333 344
M  V30 2870 1 333 346
M  V30 2871 1 333 354
M  V30 2872 1 333 374
M  V30 2873 1 333 375
M  V30 2874 1 310 334
M  V30 2875 1 312 334
M  V30 2876 1 314 334
M  V30 2877 1 334 335
M  V30 2878 1 334 344
M  V30 2879 1 334 346
M  V30 2880 1 334 348
M  V30 2881 1 334 354
M  V30 2882 1 334 356
M  V30 2883 1 334 374
M  V30 2884 1 334 375
M  V30 2885 1 334 376
M  V30 2886 1 312 335
M  V30 2887 1 314 335
M  V30 2888 1 316 335
M  V30 2889 1 335 336
M  V30 2890 1 335 346
M  V30 2891 1 335 348
M  V30 2892 1 335 350
M  V30 2893 1 335 354
M  V30 2894 1 335 356
M  V30 2895 1 335 363
M  V30 2896 1 335 371
M  V30 2897 1 335 375
M  V30 2898 1 335 376
M  V30 2899 1 314 336
M  V30 2900 1 316 336
M  V30 2901 1 318 336
M  V30 2902 1 336 338
M  V30 2903 1 336 348
M  V30 2904 1 336 350
M  V30 2905 1 336 352
M  V30 2906 1 336 356
M  V30 2907 1 336 363
M  V30 2908 1 336 364
M  V30 2909 1 336 371
M  V30 2910 1 336 372
M  V30 2911 1 336 376
M  V30 2912 1 306 337
M  V30 2913 1 307 337
M  V30 2914 1 337 339
M  V30 2915 1 337 368
M  V30 2916 1 337 369
M  V30 2917 1 337 370
M  V30 2918 1 337 392
M  V30 2919 1 337 393
M  V30 2920 1 337 403
M  V30 2921 1 309 338
M  V30 2922 1 316 338
M  V30 2923 1 318 338
M  V30 2924 1 319 338
M  V30 2925 1 338 350
M  V30 2926 1 338 352
M  V30 2927 1 338 353
M  V30 2928 1 338 363
M  V30 2929 1 338 364
M  V30 2930 1 338 365
M  V30 2931 1 338 371
M  V30 2932 1 338 372
M  V30 2933 1 338 373
M  V30 2934 1 303 339
M  V30 2935 1 306 339
M  V30 2936 1 307 339
M  V30 2937 1 308 339
M  V30 2938 1 339 362
M  V30 2939 1 339 369
M  V30 2940 1 339 370
M  V30 2941 1 339 392
M  V30 2942 1 339 393
M  V30 2943 1 339 394
M  V30 2944 1 339 403
M  V30 2945 1 339 405
M  V30 2946 1 340 342
M  V30 2947 1 340 350
M  V30 2948 1 340 352
M  V30 2949 1 340 353
M  V30 2950 1 340 379
M  V30 2951 1 340 380
M  V30 2952 1 340 381
M  V30 2953 1 340 395
M  V30 2954 1 340 397
M  V30 2955 1 340 398
M  V30 2956 1 340 406
M  V30 2957 1 340 408
M  V30 2958 1 340 410
M  V30 2959 1 341 343
M  V30 2960 1 341 399
M  V30 2961 1 341 409
M  V30 2962 1 342 352
M  V30 2963 1 342 353
M  V30 2964 1 342 380
M  V30 2965 1 342 381
M  V30 2966 1 342 397
M  V30 2967 1 342 398
M  V30 2968 1 342 408
M  V30 2969 1 342 410
M  V30 2970 1 343 399
M  V30 2971 1 343 401
M  V30 2972 1 343 409
M  V30 2973 1 343 411
M  V30 2974 1 344 346
M  V30 2975 1 344 354
M  V30 2976 1 344 382
M  V30 2977 1 344 383
M  V30 2978 1 344 402
M  V30 2979 1 344 412
M  V30 2980 1 344 414
M  V30 2981 1 345 347
M  V30 2982 1 345 385
M  V30 2983 1 345 403
M  V30 2984 1 345 413
M  V30 2985 1 346 348
M  V30 2986 1 346 354
M  V30 2987 1 346 356
M  V30 2988 1 346 378
M  V30 2989 1 346 382
M  V30 2990 1 346 383
M  V30 2991 1 346 384
M  V30 2992 1 346 402
M  V30 2993 1 346 404
M  V30 2994 1 346 412
M  V30 2995 1 346 414
M  V30 2996 1 347 349
M  V30 2997 1 347 385
M  V30 2998 1 347 387
M  V30 2999 1 347 403
M  V30 3000 1 347 405
M  V30 3001 1 347 413
M  V30 3002 1 348 350
M  V30 3003 1 348 354
M  V30 3004 1 348 356
M  V30 3005 1 348 371
M  V30 3006 1 348 377
M  V30 3007 1 348 378
M  V30 3008 1 348 379
M  V30 3009 1 348 383
M  V30 3010 1 348 384
M  V30 3011 1 348 402
M  V30 3012 1 348 404
M  V30 3013 1 348 406
M  V30 3014 1 348 414
M  V30 3015 1 349 351
M  V30 3016 1 349 385
M  V30 3017 1 349 387
M  V30 3018 1 349 388
M  V30 3019 1 349 403
M  V30 3020 1 349 405
M  V30 3021 1 349 407
M  V30 3022 1 350 352
M  V30 3023 1 350 356
M  V30 3024 1 350 371
M  V30 3025 1 350 372
M  V30 3026 1 350 377
M  V30 3027 1 350 378
M  V30 3028 1 350 379
M  V30 3029 1 350 380
M  V30 3030 1 350 384
M  V30 3031 1 350 404
M  V30 3032 1 350 406
M  V30 3033 1 350 408
M  V30 3034 1 350 415
M  V30 3035 1 351 387
M  V30 3036 1 351 388
M  V30 3037 1 351 405
M  V30 3038 1 351 407
M  V30 3039 1 352 353
M  V30 3040 1 352 371
M  V30 3041 1 352 372
M  V30 3042 1 352 373
M  V30 3043 1 352 377
M  V30 3044 1 352 379
M  V30 3045 1 352 380
M  V30 3046 1 352 381
M  V30 3047 1 352 406
M  V30 3048 1 352 408
M  V30 3049 1 352 410
M  V30 3050 1 352 415
M  V30 3051 1 352 416
M  V30 3052 1 353 372
M  V30 3053 1 353 373
M  V30 3054 1 353 380
M  V30 3055 1 353 381
M  V30 3056 1 353 408
M  V30 3057 1 353 410
M  V30 3058 1 353 415
M  V30 3059 1 353 416
M  V30 3060 1 354 356
M  V30 3061 1 354 374
M  V30 3062 1 354 375
M  V30 3063 1 354 376
M  V30 3064 1 354 378
M  V30 3065 1 354 382
M  V30 3066 1 354 383
M  V30 3067 1 354 384
M  V30 3068 1 354 412
M  V30 3069 1 354 414
M  V30 3070 1 354 417
M  V30 3071 1 354 418
M  V30 3072 1 354 419
M  V30 3073 1 340 355
M  V30 3074 1 355 357
M  V30 3075 1 355 360
M  V30 3076 1 355 361
M  V30 3077 1 355 395
M  V30 3078 1 355 397
M  V30 3079 1 355 404
M  V30 3080 1 355 406
M  V30 3081 1 355 408
M  V30 3082 1 356 363
M  V30 3083 1 356 371
M  V30 3084 1 356 375
M  V30 3085 1 356 376
M  V30 3086 1 356 377
M  V30 3087 1 356 378
M  V30 3088 1 356 379
M  V30 3089 1 356 383
M  V30 3090 1 356 384
M  V30 3091 1 356 414
M  V30 3092 1 356 418
M  V30 3093 1 356 419
M  V30 3094 1 356 420
M  V30 3095 1 340 357
M  V30 3096 1 342 357
M  V30 3097 1 357 358
M  V30 3098 1 357 361
M  V30 3099 1 357 395
M  V30 3100 1 357 397
M  V30 3101 1 357 398
M  V30 3102 1 357 406
M  V30 3103 1 357 408
M  V30 3104 1 357 410
M  V30 3105 1 340 358
M  V30 3106 1 342 358
M  V30 3107 1 358 397
M  V30 3108 1 358 398
M  V30 3109 1 358 408
M  V30 3110 1 358 410
M  V30 3111 1 344 359
M  V30 3112 1 346 359
M  V30 3113 1 359 402
M  V30 3114 1 359 412
M  V30 3115 1 359 414
M  V30 3116 1 346 360
M  V30 3117 1 348 360
M  V30 3118 1 350 360
M  V30 3119 1 360 361
M  V30 3120 1 360 378
M  V30 3121 1 360 379
M  V30 3122 1 360 395
M  V30 3123 1 360 402
M  V30 3124 1 360 404
M  V30 3125 1 360 406
M  V30 3126 1 360 414
M  V30 3127 1 340 361
M  V30 3128 1 348 361
M  V30 3129 1 350 361
M  V30 3130 1 352 361
M  V30 3131 1 361 378
M  V30 3132 1 361 379
M  V30 3133 1 361 380
M  V30 3134 1 361 395
M  V30 3135 1 361 397
M  V30 3136 1 361 404
M  V30 3137 1 361 406
M  V30 3138 1 361 408
M  V30 3139 1 362 386
M  V30 3140 1 362 393
M  V30 3141 1 362 394
M  V30 3142 1 362 396
M  V30 3143 1 362 420
M  V30 3144 1 362 421
M  V30 3145 1 362 422
M  V30 3146 1 362 426
M  V30 3147 1 362 428
M  V30 3148 1 362 429
M  V30 3149 1 362 430
M  V30 3150 1 362 442
M  V30 3151 1 362 444
M  V30 3152 1 362 363
M  V30 3153 1 363 364
M  V30 3154 1 363 369
M  V30 3155 1 363 370
M  V30 3156 1 363 377
M  V30 3157 1 363 384
M  V30 3158 1 363 415
M  V30 3159 1 363 419
M  V30 3160 1 363 420
M  V30 3161 1 363 421
M  V30 3162 1 363 425
M  V30 3163 1 363 426
M  V30 3164 1 363 442
M  V30 3165 1 362 364
M  V30 3166 1 364 365
M  V30 3167 1 364 370
M  V30 3168 1 364 377
M  V30 3169 1 364 386
M  V30 3170 1 364 415
M  V30 3171 1 364 416
M  V30 3172 1 364 420
M  V30 3173 1 364 421
M  V30 3174 1 364 422
M  V30 3175 1 364 426
M  V30 3176 1 364 442
M  V30 3177 1 364 444
M  V30 3178 1 362 365
M  V30 3179 1 365 386
M  V30 3180 1 365 415
M  V30 3181 1 365 416
M  V30 3182 1 365 421
M  V30 3183 1 365 422
M  V30 3184 1 365 442
M  V30 3185 1 365 444
M  V30 3186 1 366 367
M  V30 3187 1 366 389
M  V30 3188 1 366 391
M  V30 3189 1 366 417
M  V30 3190 1 366 423
M  V30 3191 1 366 447
M  V30 3192 1 366 448
M  V30 3193 1 367 368
M  V30 3194 1 367 391
M  V30 3195 1 367 417
M  V30 3196 1 367 418
M  V30 3197 1 367 423
M  V30 3198 1 367 424
M  V30 3199 1 367 447
M  V30 3200 1 367 448
M  V30 3201 1 367 449
M  V30 3202 1 368 369
M  V30 3203 1 368 391
M  V30 3204 1 368 392
M  V30 3205 1 368 417
M  V30 3206 1 368 418
M  V30 3207 1 368 419
M  V30 3208 1 368 423
M  V30 3209 1 368 424
M  V30 3210 1 368 425
M  V30 3211 1 368 427
M  V30 3212 1 368 448
M  V30 3213 1 368 449
M  V30 3214 1 369 370
M  V30 3215 1 369 392
M  V30 3216 1 369 393
M  V30 3217 1 369 418
M  V30 3218 1 369 419
M  V30 3219 1 369 420
M  V30 3220 1 369 424
M  V30 3221 1 369 425
M  V30 3222 1 369 426
M  V30 3223 1 369 427
M  V30 3224 1 369 428
M  V30 3225 1 369 449
M  V30 3226 1 362 370
M  V30 3227 1 370 392
M  V30 3228 1 370 393
M  V30 3229 1 370 394
M  V30 3230 1 370 419
M  V30 3231 1 370 420
M  V30 3232 1 370 421
M  V30 3233 1 370 425
M  V30 3234 1 370 426
M  V30 3235 1 370 427
M  V30 3236 1 370 428
M  V30 3237 1 370 429
M  V30 3238 1 370 442
M  V30 3239 1 363 371
M  V30 3240 1 364 371
M  V30 3241 1 371 372
M  V30 3242 1 371 376
M  V30 3243 1 371 377
M  V30 3244 1 371 378
M  V30 3245 1 371 379
M  V30 3246 1 371 380
M  V30 3247 1 371 384
M  V30 3248 1 371 415
M  V30 3249 1 371 419
M  V30 3250 1 371 420
M  V30 3251 1 371 421
M  V30 3252 1 363 372
M  V30 3253 1 364 372
M  V30 3254 1 365 372
M  V30 3255 1 372 373
M  V30 3256 1 372 377
M  V30 3257 1 372 379
M  V30 3258 1 372 380
M  V30 3259 1 372 381
M  V30 3260 1 372 415
M  V30 3261 1 372 416
M  V30 3262 1 372 420
M  V30 3263 1 372 421
M  V30 3264 1 372 422
M  V30 3265 1 364 373
M  V30 3266 1 365 373
M  V30 3267 1 373 380
M  V30 3268 1 373 381
M  V30 3269 1 373 415
M  V30 3270 1 373 416
M  V30 3271 1 373 421
M  V30 3272 1 373 422
M  V30 3273 1 366 374
M  V30 3274 1 367 374
M  V30 3275 1 368 374
M  V30 3276 1 374 375
M  V30 3277 1 374 382
M  V30 3278 1 374 383
M  V30 3279 1 374 417
M  V30 3280 1 374 418
M  V30 3281 1 374 423
M  V30 3282 1 374 424
M  V30 3283 1 367 375
M  V30 3284 1 368 375
M  V30 3285 1 369 375
M  V30 3286 1 375 376
M  V30 3287 1 375 382
M  V30 3288 1 375 383
M  V30 3289 1 375 384
M  V30 3290 1 375 417
M  V30 3291 1 375 418
M  V30 3292 1 375 419
M  V30 3293 1 375 423
M  V30 3294 1 375 424
M  V30 3295 1 375 425
M  V30 3296 1 363 376
M  V30 3297 1 368 376
M  V30 3298 1 369 376
M  V30 3299 1 370 376
M  V30 3300 1 376 377
M  V30 3301 1 376 383
M  V30 3302 1 376 384
M  V30 3303 1 376 418
M  V30 3304 1 376 419
M  V30 3305 1 376 420
M  V30 3306 1 376 424
M  V30 3307 1 376 425
M  V30 3308 1 376 426
M  V30 3309 1 377 415
M  V30 3310 1 377 419
M  V30 3311 1 377 420
M  V30 3312 1 377 421
M  V30 3313 1 377 378
M  V30 3314 1 378 379
M  V30 3315 1 378 383
M  V30 3316 1 378 384
M  V30 3317 1 377 379
M  V30 3318 1 379 380
M  V30 3319 1 379 384
M  V30 3320 1 379 415
M  V30 3321 1 377 380
M  V30 3322 1 380 381
M  V30 3323 1 380 415
M  V30 3324 1 380 416
M  V30 3325 1 381 415
M  V30 3326 1 381 416
M  V30 3327 1 382 383
M  V30 3328 1 382 417
M  V30 3329 1 382 418
M  V30 3330 1 383 384
M  V30 3331 1 383 417
M  V30 3332 1 383 418
M  V30 3333 1 383 419
M  V30 3334 1 377 384
M  V30 3335 1 384 418
M  V30 3336 1 384 419
M  V30 3337 1 384 420
M  V30 3338 1 385 387
M  V30 3339 1 385 434
M  V30 3340 1 385 435
M  V30 3341 1 385 436
M  V30 3342 1 385 441
M  V30 3343 1 385 443
M  V30 3344 1 385 445
M  V30 3345 1 386 394
M  V30 3346 1 386 396
M  V30 3347 1 386 421
M  V30 3348 1 386 422
M  V30 3349 1 386 429
M  V30 3350 1 386 430
M  V30 3351 1 386 442
M  V30 3352 1 386 444
M  V30 3353 1 387 388
M  V30 3354 1 387 435
M  V30 3355 1 387 436
M  V30 3356 1 387 437
M  V30 3357 1 387 443
M  V30 3358 1 387 445
M  V30 3359 1 387 446
M  V30 3360 1 388 436
M  V30 3361 1 388 437
M  V30 3362 1 388 445
M  V30 3363 1 388 446
M  V30 3364 1 389 399
M  V30 3365 1 389 401
M  V30 3366 1 389 431
M  V30 3367 1 389 432
M  V30 3368 1 389 447
M  V30 3369 1 390 400
M  V30 3370 1 391 401
M  V30 3371 1 391 423
M  V30 3372 1 391 424
M  V30 3373 1 391 432
M  V30 3374 1 391 433
M  V30 3375 1 391 447
M  V30 3376 1 391 448
M  V30 3377 1 391 449
M  V30 3378 1 392 393
M  V30 3379 1 392 403
M  V30 3380 1 392 424
M  V30 3381 1 392 425
M  V30 3382 1 392 426
M  V30 3383 1 392 427
M  V30 3384 1 392 428
M  V30 3385 1 392 434
M  V30 3386 1 392 435
M  V30 3387 1 392 449
M  V30 3388 1 393 394
M  V30 3389 1 393 403
M  V30 3390 1 393 405
M  V30 3391 1 393 425
M  V30 3392 1 393 426
M  V30 3393 1 393 427
M  V30 3394 1 393 428
M  V30 3395 1 393 429
M  V30 3396 1 393 434
M  V30 3397 1 393 435
M  V30 3398 1 393 436
M  V30 3399 1 393 442
M  V30 3400 1 394 396
M  V30 3401 1 394 403
M  V30 3402 1 394 405
M  V30 3403 1 394 407
M  V30 3404 1 394 426
M  V30 3405 1 394 428
M  V30 3406 1 394 429
M  V30 3407 1 394 430
M  V30 3408 1 394 435
M  V30 3409 1 394 436
M  V30 3410 1 394 437
M  V30 3411 1 394 442
M  V30 3412 1 394 444
M  V30 3413 1 395 397
M  V30 3414 1 395 404
M  V30 3415 1 395 406
M  V30 3416 1 395 408
M  V30 3417 1 396 405
M  V30 3418 1 396 407
M  V30 3419 1 396 429
M  V30 3420 1 396 430
M  V30 3421 1 396 436
M  V30 3422 1 396 437
M  V30 3423 1 396 442
M  V30 3424 1 396 444
M  V30 3425 1 397 398
M  V30 3426 1 397 406
M  V30 3427 1 397 408
M  V30 3428 1 397 410
M  V30 3429 1 398 408
M  V30 3430 1 398 410
M  V30 3431 1 399 401
M  V30 3432 1 399 409
M  V30 3433 1 399 411
M  V30 3434 1 399 431
M  V30 3435 1 399 432
M  V30 3436 1 399 438
M  V30 3437 1 399 439
M  V30 3438 1 399 447
M  V30 3439 1 401 411
M  V30 3440 1 401 431
M  V30 3441 1 401 432
M  V30 3442 1 401 433
M  V30 3443 1 401 439
M  V30 3444 1 401 440
M  V30 3445 1 401 447
M  V30 3446 1 401 448
M  V30 3447 1 378 402
M  V30 3448 1 402 404
M  V30 3449 1 402 412
M  V30 3450 1 402 414
M  V30 3451 1 385 403
M  V30 3452 1 387 403
M  V30 3453 1 403 405
M  V30 3454 1 403 413
M  V30 3455 1 403 427
M  V30 3456 1 403 428
M  V30 3457 1 403 429
M  V30 3458 1 403 434
M  V30 3459 1 403 435
M  V30 3460 1 403 436
M  V30 3461 1 403 441
M  V30 3462 1 403 443
M  V30 3463 1 403 445
M  V30 3464 1 378 404
M  V30 3465 1 379 404
M  V30 3466 1 404 406
M  V30 3467 1 404 414
M  V30 3468 1 385 405
M  V30 3469 1 387 405
M  V30 3470 1 388 405
M  V30 3471 1 405 407
M  V30 3472 1 405 428
M  V30 3473 1 405 429
M  V30 3474 1 405 430
M  V30 3475 1 405 435
M  V30 3476 1 405 436
M  V30 3477 1 405 437
M  V30 3478 1 405 443
M  V30 3479 1 405 445
M  V30 3480 1 405 446
M  V30 3481 1 378 406
M  V30 3482 1 379 406
M  V30 3483 1 380 406
M  V30 3484 1 406 408
M  V30 3485 1 387 407
M  V30 3486 1 388 407
M  V30 3487 1 407 429
M  V30 3488 1 407 430
M  V30 3489 1 407 436
M  V30 3490 1 407 437
M  V30 3491 1 407 445
M  V30 3492 1 407 446
M  V30 3493 1 379 408
M  V30 3494 1 380 408
M  V30 3495 1 381 408
M  V30 3496 1 408 410
M  V30 3497 1 409 431
M  V30 3498 1 409 438
M  V30 3499 1 380 410
M  V30 3500 1 381 410
M  V30 3501 1 411 431
M  V30 3502 1 411 432
M  V30 3503 1 411 433
M  V30 3504 1 411 439
M  V30 3505 1 411 440
M  V30 3506 1 382 412
M  V30 3507 1 383 412
M  V30 3508 1 412 414
M  V30 3509 1 385 413
M  V30 3510 1 413 434
M  V30 3511 1 413 435
M  V30 3512 1 413 441
M  V30 3513 1 413 443
M  V30 3514 1 378 414
M  V30 3515 1 382 414
M  V30 3516 1 383 414
M  V30 3517 1 384 414
M  V30 3518 1 415 416
M  V30 3519 1 415 420
M  V30 3520 1 415 421
M  V30 3521 1 415 422
M  V30 3522 1 416 421
M  V30 3523 1 416 422
M  V30 3524 1 417 418
M  V30 3525 1 417 423
M  V30 3526 1 417 424
M  V30 3527 1 418 419
M  V30 3528 1 418 423
M  V30 3529 1 418 424
M  V30 3530 1 418 425
M  V30 3531 1 419 420
M  V30 3532 1 419 424
M  V30 3533 1 419 425
M  V30 3534 1 419 426
M  V30 3535 1 420 421
M  V30 3536 1 420 425
M  V30 3537 1 420 426
M  V30 3538 1 420 442
M  V30 3539 1 421 422
M  V30 3540 1 421 426
M  V30 3541 1 421 442
M  V30 3542 1 421 444
M  V30 3543 1 422 442
M  V30 3544 1 422 444
M  V30 3545 1 423 424
M  V30 3546 1 423 447
M  V30 3547 1 423 448
M  V30 3548 1 423 449
M  V30 3549 1 424 425
M  V30 3550 1 424 427
M  V30 3551 1 424 448
M  V30 3552 1 424 449
M  V30 3553 1 425 426
M  V30 3554 1 425 427
M  V30 3555 1 425 428
M  V30 3556 1 425 449
M  V30 3557 1 426 427
M  V30 3558 1 426 428
M  V30 3559 1 426 429
M  V30 3560 1 426 442
M  V30 3561 1 427 428
M  V30 3562 1 427 434
M  V30 3563 1 427 435
M  V30 3564 1 428 429
M  V30 3565 1 428 434
M  V30 3566 1 428 435
M  V30 3567 1 428 436
M  V30 3568 1 429 430
M  V30 3569 1 429 435
M  V30 3570 1 429 436
M  V30 3571 1 429 437
M  V30 3572 1 430 436
M  V30 3573 1 430 437
M  V30 3574 1 431 432
M  V30 3575 1 431 438
M  V30 3576 1 431 439
M  V30 3577 1 432 433
M  V30 3578 1 432 439
M  V30 3579 1 432 440
M  V30 3580 1 433 439
M  V30 3581 1 433 440
M  V30 3582 1 434 435
M  V30 3583 1 434 441
M  V30 3584 1 434 443
M  V30 3585 1 435 436
M  V30 3586 1 435 441
M  V30 3587 1 435 443
M  V30 3588 1 435 445
M  V30 3589 1 436 437
M  V30 3590 1 436 443
M  V30 3591 1 436 445
M  V30 3592 1 436 446
M  V30 3593 1 437 445
M  V30 3594 1 437 446
M  V30 3595 1 439 440
M  V30 3596 1 441 443
M  V30 3597 1 428 442
M  V30 3598 1 429 442
M  V30 3599 1 430 442
M  V30 3600 1 442 444
M  V30 3601 1 443 445
M  V30 3602 1 429 444
M  V30 3603 1 430 444
M  V30 3604 1 445 446
M  V30 3605 1 431 447
M  V30 3606 1 432 447
M  V30 3607 1 433 447
M  V30 3608 1 447 448
M  V30 3609 1 432 448
M  V30 3610 1 433 448
M  V30 3611 1 448 449
M  V30 3612 1 427 449
M  V30 3613 1 433 449
M  V30 3614 1 434 449
M  V30 END BOND
M  V30 END CTAB
M  END
>  <pdb_header>


$$$$
