# created with PyMOL 2.5.4
@<TRIPOS>MOLECULE
7l1u_receptor_and_orexin_empty_pocket_2_empty_space_aligned
449 3614 8              
SMALL
USER_CHARGES
@<TRIPOS>ATOM
1	   O	-4.564	-2.103	0.447	O.3	1	HIS1	0.000	
2	   0	-4.564	1.897	2.447	O.3	1	HIS1	0.000	
3	   1	-4.564	1.897	3.447	O.3	1	HIS1	0.000	
4	   2	-4.564	1.897	4.447	O.3	1	HIS1	0.000	
5	   3	-4.564	2.897	-3.553	O.3	1	HIS1	0.000	
6	   4	-4.564	2.897	-2.553	O.3	1	HIS1	0.000	
7	   +	-4.564	2.897	3.447	O.3	1	HIS1	0.000	
8	   a	-4.564	-1.103	3.447	O.3	1	HIS1	0.000	
9	   B	-4.564	-3.103	-3.553	O.3	1	HIS1	0.000	
10	   b	-4.564	-1.103	4.447	O.3	1	HIS1	0.000	
11	   c	-4.564	-0.103	-3.553	O.3	1	HIS1	0.000	
12	  Ca	-3.564	-3.103	2.447	O.3	1	HIS1	0.000	
13	  CB	-4.564	2.897	4.447	O.3	1	HIS1	0.000	
14	  Cb	-3.564	-3.103	3.447	O.3	1	HIS1	0.000	
15	  CC	-4.564	3.897	-3.553	O.3	1	HIS1	0.000	
16	  Cc	-3.564	-3.103	4.447	O.3	1	HIS1	0.000	
17	  CD	-4.564	3.897	-2.553	O.3	1	HIS1	0.000	
18	  Cd	-3.564	-2.103	-3.553	O.3	1	HIS1	0.000	
19	  Ce	-3.564	-2.103	-2.553	O.3	1	HIS1	0.000	
20	  Cg	-3.564	-2.103	-0.553	O.3	1	HIS1	0.000	
21	  Ch	-3.564	-2.103	0.447	O.3	1	HIS1	0.000	
22	  CI	-4.564	3.897	2.447	O.3	1	HIS1	0.000	
23	  Ci	-3.564	-2.103	1.447	O.3	1	HIS1	0.000	
24	  CJ	-4.564	3.897	3.447	O.3	1	HIS1	0.000	
25	  Cj	-3.564	-2.103	2.447	O.3	1	HIS1	0.000	
26	  CK	-4.564	3.897	4.447	O.3	1	HIS1	0.000	
27	  Ck	-3.564	-2.103	3.447	O.3	1	HIS1	0.000	
28	  Cl	-3.564	-2.103	4.447	O.3	1	HIS1	0.000	
29	  Cm	-3.564	-1.103	-3.553	O.3	1	HIS1	0.000	
30	  CR	-4.564	4.897	2.447	O.3	1	HIS1	0.000	
31	  CT	-4.564	4.897	4.447	O.3	1	HIS1	0.000	
32	  CU	-3.564	-3.103	-3.553	O.3	1	HIS1	0.000	
33	  CV	-3.564	-3.103	-2.553	O.3	1	HIS1	0.000	
34	  CW	-3.564	-3.103	-1.553	O.3	1	HIS1	0.000	
35	  CX	-3.564	-3.103	-0.553	O.3	1	HIS1	0.000	
36	  CY	-3.564	-3.103	0.447	O.3	1	HIS1	0.000	
37	   D	-4.564	-3.103	-1.553	O.3	1	HIS1	0.000	
38	   d	-4.564	-0.103	-2.553	O.3	1	HIS1	0.000	
39	   E	-4.564	-3.103	-0.553	O.3	1	HIS1	0.000	
40	   F	-4.564	-3.103	0.447	O.3	1	HIS1	0.000	
41	   G	-4.564	-3.103	1.447	O.3	1	HIS1	0.000	
42	   h	-4.564	-0.103	1.447	O.3	1	HIS1	0.000	
43	   i	-4.564	-0.103	2.447	O.3	1	HIS1	0.000	
44	   j	-4.564	-0.103	3.447	O.3	1	HIS1	0.000	
45	   K	-4.564	-2.103	-3.553	O.3	1	HIS1	0.000	
46	   L	-4.564	-2.103	-2.553	O.3	1	HIS1	0.000	
47	   l	-4.564	0.897	-3.553	O.3	1	HIS1	0.000	
48	   M	-4.564	-2.103	-1.553	O.3	1	HIS1	0.000	
49	   N	-4.564	-2.103	-0.553	O.3	1	HIS1	0.000	
50	   P	-4.564	-2.103	1.447	O.3	1	HIS1	0.000	
51	   Q	-4.564	-2.103	2.447	O.3	1	HIS1	0.000	
52	   R	-4.564	-2.103	3.447	O.3	1	HIS1	0.000	
53	   r	-4.564	0.897	2.447	O.3	1	HIS1	0.000	
54	   S	-4.564	-2.103	4.447	O.3	1	HIS1	0.000	
55	   s	-4.564	0.897	3.447	O.3	1	HIS1	0.000	
56	   T	-4.564	-1.103	-3.553	O.3	1	HIS1	0.000	
57	   t	-4.564	0.897	4.447	O.3	1	HIS1	0.000	
58	   U	-4.564	-1.103	-2.553	O.3	1	HIS1	0.000	
59	   u	-4.564	1.897	-3.553	O.3	1	HIS1	0.000	
60	   V	-4.564	-1.103	-1.553	O.3	1	HIS1	0.000	
61	   X	-4.564	-1.103	0.447	O.3	1	HIS1	0.000	
62	   Y	-4.564	-1.103	1.447	O.3	1	HIS1	0.000	
63	   Z	-4.564	-1.103	2.447	O.3	1	HIS1	0.000	
64	  C+	-3.564	0.897	2.447	O.3	2	HIS2	0.000	
65	  C0	-3.564	-0.103	1.447	O.3	2	HIS2	0.000	
66	  C1	-3.564	-0.103	2.447	O.3	2	HIS2	0.000	
67	  C2	-3.564	-0.103	3.447	O.3	2	HIS2	0.000	
68	  C3	-3.564	-0.103	4.447	O.3	2	HIS2	0.000	
69	  C4	-3.564	0.897	-3.553	O.3	2	HIS2	0.000	
70	  C5	-3.564	0.897	-2.553	O.3	2	HIS2	0.000	
71	  C9	-3.564	0.897	1.447	O.3	2	HIS2	0.000	
72	  Cn	-3.564	-1.103	-2.553	O.3	2	HIS2	0.000	
73	  Cp	-3.564	-1.103	-0.553	O.3	2	HIS2	0.000	
74	  Cq	-3.564	-1.103	0.447	O.3	2	HIS2	0.000	
75	  Cr	-3.564	-1.103	1.447	O.3	2	HIS2	0.000	
76	  Cs	-3.564	-1.103	2.447	O.3	2	HIS2	0.000	
77	  Ct	-3.564	-1.103	3.447	O.3	2	HIS2	0.000	
78	  Cu	-3.564	-1.103	4.447	O.3	2	HIS2	0.000	
79	  Cv	-3.564	-0.103	-3.553	O.3	2	HIS2	0.000	
80	  Cw	-3.564	-0.103	-2.553	O.3	2	HIS2	0.000	
81	  D+	-2.564	-1.103	1.447	O.3	2	HIS2	0.000	
82	  D0	-2.564	-2.103	0.447	O.3	2	HIS2	0.000	
83	  D1	-2.564	-2.103	1.447	O.3	2	HIS2	0.000	
84	  D2	-2.564	-2.103	2.447	O.3	2	HIS2	0.000	
85	  D3	-2.564	-2.103	3.447	O.3	2	HIS2	0.000	
86	  D4	-2.564	-2.103	4.447	O.3	2	HIS2	0.000	
87	  D5	-2.564	-1.103	-3.553	O.3	2	HIS2	0.000	
88	  D9	-2.564	-1.103	0.447	O.3	2	HIS2	0.000	
89	  DB	-3.564	0.897	3.447	O.3	2	HIS2	0.000	
90	  Db	-3.564	3.897	2.447	O.3	2	HIS2	0.000	
91	  DC	-3.564	0.897	4.447	O.3	2	HIS2	0.000	
92	  Dc	-3.564	3.897	3.447	O.3	2	HIS2	0.000	
93	  DD	-3.564	1.897	-3.553	O.3	2	HIS2	0.000	
94	  Dd	-3.564	3.897	4.447	O.3	2	HIS2	0.000	
95	  DE	-3.564	1.897	-2.553	O.3	2	HIS2	0.000	
96	  De	-3.564	4.897	-3.553	O.3	2	HIS2	0.000	
97	  Df	-3.564	4.897	-2.553	O.3	2	HIS2	0.000	
98	  DJ	-3.564	1.897	2.447	O.3	2	HIS2	0.000	
99	  Dj	-3.564	4.897	1.447	O.3	2	HIS2	0.000	
100	  DK	-3.564	1.897	3.447	O.3	2	HIS2	0.000	
101	  Dk	-3.564	4.897	2.447	O.3	2	HIS2	0.000	
102	  DL	-3.564	1.897	4.447	O.3	2	HIS2	0.000	
103	  Dl	-3.564	4.897	3.447	O.3	2	HIS2	0.000	
104	  DM	-3.564	2.897	-3.553	O.3	2	HIS2	0.000	
105	  Dm	-3.564	4.897	4.447	O.3	2	HIS2	0.000	
106	  DN	-3.564	2.897	-2.553	O.3	2	HIS2	0.000	
107	  Dn	-2.564	-3.103	-3.553	O.3	2	HIS2	0.000	
108	  Do	-2.564	-3.103	-2.553	O.3	2	HIS2	0.000	
109	  Dq	-2.564	-3.103	-0.553	O.3	2	HIS2	0.000	
110	  Dr	-2.564	-3.103	0.447	O.3	2	HIS2	0.000	
111	  Ds	-2.564	-3.103	1.447	O.3	2	HIS2	0.000	
112	  DT	-3.564	2.897	3.447	O.3	2	HIS2	0.000	
113	  Dt	-2.564	-3.103	2.447	O.3	2	HIS2	0.000	
114	  DU	-3.564	2.897	4.447	O.3	2	HIS2	0.000	
115	  Du	-2.564	-3.103	3.447	O.3	2	HIS2	0.000	
116	  Dv	-2.564	-3.103	4.447	O.3	2	HIS2	0.000	
117	  Dw	-2.564	-2.103	-3.553	O.3	2	HIS2	0.000	
118	  EB	-2.564	-1.103	2.447	O.3	2	HIS2	0.000	
119	  EC	-2.564	-1.103	3.447	O.3	2	HIS2	0.000	
120	  ED	-2.564	-1.103	4.447	O.3	2	HIS2	0.000	
121	  EE	-2.564	-0.103	-3.553	O.3	2	HIS2	0.000	
122	  EI	-2.564	-0.103	0.447	O.3	2	HIS2	0.000	
123	  EJ	-2.564	-0.103	1.447	O.3	2	HIS2	0.000	
124	  EK	-2.564	-0.103	2.447	O.3	2	HIS2	0.000	
125	  EL	-2.564	-0.103	3.447	O.3	2	HIS2	0.000	
126	  EM	-2.564	-0.103	4.447	O.3	2	HIS2	0.000	
127	  EN	-2.564	0.897	-3.553	O.3	2	HIS2	0.000	
128	  EO	-2.564	0.897	-2.553	O.3	2	HIS2	0.000	
129	  E3	-2.564	4.897	2.447	O.3	3	HIS3	0.000	
130	  E4	-2.564	4.897	3.447	O.3	3	HIS3	0.000	
131	  E5	-2.564	4.897	4.447	O.3	3	HIS3	0.000	
132	  E6	-1.564	-3.103	-3.553	O.3	3	HIS3	0.000	
133	  E7	-1.564	-3.103	-2.553	O.3	3	HIS3	0.000	
134	  E9	-1.564	-3.103	-0.553	O.3	3	HIS3	0.000	
135	  Ec	-2.564	1.897	2.447	O.3	3	HIS3	0.000	
136	  Ed	-2.564	1.897	3.447	O.3	3	HIS3	0.000	
137	  Ee	-2.564	1.897	4.447	O.3	3	HIS3	0.000	
138	  Ef	-2.564	2.897	-3.553	O.3	3	HIS3	0.000	
139	  Eg	-2.564	2.897	-2.553	O.3	3	HIS3	0.000	
140	  Eh	-2.564	2.897	-1.553	O.3	3	HIS3	0.000	
141	  El	-2.564	2.897	2.447	O.3	3	HIS3	0.000	
142	  Em	-2.564	2.897	3.447	O.3	3	HIS3	0.000	
143	  En	-2.564	2.897	4.447	O.3	3	HIS3	0.000	
144	  Eo	-2.564	3.897	-3.553	O.3	3	HIS3	0.000	
145	  Ep	-2.564	3.897	-2.553	O.3	3	HIS3	0.000	
146	  ER	-2.564	0.897	0.447	O.3	3	HIS3	0.000	
147	  ES	-2.564	0.897	1.447	O.3	3	HIS3	0.000	
148	  ET	-2.564	0.897	2.447	O.3	3	HIS3	0.000	
149	  EU	-2.564	0.897	3.447	O.3	3	HIS3	0.000	
150	  Eu	-2.564	3.897	2.447	O.3	3	HIS3	0.000	
151	  EV	-2.564	0.897	4.447	O.3	3	HIS3	0.000	
152	  Ev	-2.564	3.897	3.447	O.3	3	HIS3	0.000	
153	  EW	-2.564	1.897	-3.553	O.3	3	HIS3	0.000	
154	  Ew	-2.564	3.897	4.447	O.3	3	HIS3	0.000	
155	  EY	-2.564	1.897	-1.553	O.3	3	HIS3	0.000	
156	  Ey	-2.564	4.897	-2.553	O.3	3	HIS3	0.000	
157	  FB	-1.564	-3.103	1.447	O.3	3	HIS3	0.000	
158	  Fb	-1.564	-0.103	0.447	O.3	3	HIS3	0.000	
159	  FC	-1.564	-3.103	2.447	O.3	3	HIS3	0.000	
160	  Fc	-1.564	-0.103	1.447	O.3	3	HIS3	0.000	
161	  FD	-1.564	-3.103	3.447	O.3	3	HIS3	0.000	
162	  Fd	-1.564	-0.103	2.447	O.3	3	HIS3	0.000	
163	  FE	-1.564	-3.103	4.447	O.3	3	HIS3	0.000	
164	  Fe	-1.564	-0.103	3.447	O.3	3	HIS3	0.000	
165	  FF	-1.564	-2.103	-3.553	O.3	3	HIS3	0.000	
166	  Ff	-1.564	-0.103	4.447	O.3	3	HIS3	0.000	
167	  FK	-1.564	-2.103	1.447	O.3	3	HIS3	0.000	
168	  Fk	-1.564	0.897	0.447	O.3	3	HIS3	0.000	
169	  FL	-1.564	-2.103	2.447	O.3	3	HIS3	0.000	
170	  Fl	-1.564	0.897	1.447	O.3	3	HIS3	0.000	
171	  FM	-1.564	-2.103	3.447	O.3	3	HIS3	0.000	
172	  Fm	-1.564	0.897	2.447	O.3	3	HIS3	0.000	
173	  FN	-1.564	-2.103	4.447	O.3	3	HIS3	0.000	
174	  Fn	-1.564	0.897	3.447	O.3	3	HIS3	0.000	
175	  Fo	-1.564	0.897	4.447	O.3	3	HIS3	0.000	
176	  FT	-1.564	-1.103	1.447	O.3	3	HIS3	0.000	
177	  Ft	-1.564	1.897	0.447	O.3	3	HIS3	0.000	
178	  FU	-1.564	-1.103	2.447	O.3	3	HIS3	0.000	
179	  Fu	-1.564	1.897	1.447	O.3	3	HIS3	0.000	
180	  FV	-1.564	-1.103	3.447	O.3	3	HIS3	0.000	
181	  Fv	-1.564	1.897	2.447	O.3	3	HIS3	0.000	
182	  FW	-1.564	-1.103	4.447	O.3	3	HIS3	0.000	
183	  Fw	-1.564	1.897	3.447	O.3	3	HIS3	0.000	
184	  FX	-1.564	-0.103	-3.553	O.3	3	HIS3	0.000	
185	  Fx	-1.564	1.897	4.447	O.3	3	HIS3	0.000	
186	  F1	-1.564	2.897	-0.553	O.3	4	HIS4	0.000	
187	  F3	-1.564	2.897	1.447	O.3	4	HIS4	0.000	
188	  F4	-1.564	2.897	2.447	O.3	4	HIS4	0.000	
189	  F5	-1.564	2.897	3.447	O.3	4	HIS4	0.000	
190	  F6	-1.564	2.897	4.447	O.3	4	HIS4	0.000	
191	  F8	-1.564	3.897	-2.553	O.3	4	HIS4	0.000	
192	  F9	-1.564	3.897	-1.553	O.3	4	HIS4	0.000	
193	  G4	-0.564	0.897	1.447	O.3	4	HIS4	0.000	
194	  G5	-0.564	0.897	2.447	O.3	4	HIS4	0.000	
195	  G6	-0.564	0.897	3.447	O.3	4	HIS4	0.000	
196	  G7	-0.564	0.897	4.447	O.3	4	HIS4	0.000	
197	  GD	-1.564	3.897	2.447	O.3	4	HIS4	0.000	
198	  GE	-1.564	3.897	3.447	O.3	4	HIS4	0.000	
199	  Ge	-0.564	-2.103	2.447	O.3	4	HIS4	0.000	
200	  GF	-1.564	3.897	4.447	O.3	4	HIS4	0.000	
201	  Gf	-0.564	-2.103	3.447	O.3	4	HIS4	0.000	
202	  Gg	-0.564	-2.103	4.447	O.3	4	HIS4	0.000	
203	  Gh	-0.564	-1.103	-3.553	O.3	4	HIS4	0.000	
204	  Gm	-0.564	-1.103	1.447	O.3	4	HIS4	0.000	
205	  GN	-1.564	4.897	3.447	O.3	4	HIS4	0.000	
206	  Gn	-0.564	-1.103	2.447	O.3	4	HIS4	0.000	
207	  GO	-1.564	4.897	4.447	O.3	4	HIS4	0.000	
208	  Go	-0.564	-1.103	3.447	O.3	4	HIS4	0.000	
209	  GP	-0.564	-3.103	-3.553	O.3	4	HIS4	0.000	
210	  Gp	-0.564	-1.103	4.447	O.3	4	HIS4	0.000	
211	  GQ	-0.564	-3.103	-2.553	O.3	4	HIS4	0.000	
212	  Gq	-0.564	-0.103	-3.553	O.3	4	HIS4	0.000	
213	  GR	-0.564	-3.103	-1.553	O.3	4	HIS4	0.000	
214	  GS	-0.564	-3.103	-0.553	O.3	4	HIS4	0.000	
215	  GU	-0.564	-3.103	1.447	O.3	4	HIS4	0.000	
216	  Gu	-0.564	-0.103	0.447	O.3	4	HIS4	0.000	
217	  GV	-0.564	-3.103	2.447	O.3	4	HIS4	0.000	
218	  Gv	-0.564	-0.103	1.447	O.3	4	HIS4	0.000	
219	  GW	-0.564	-3.103	3.447	O.3	4	HIS4	0.000	
220	  Gw	-0.564	-0.103	2.447	O.3	4	HIS4	0.000	
221	  GX	-0.564	-3.103	4.447	O.3	4	HIS4	0.000	
222	  Gx	-0.564	-0.103	3.447	O.3	4	HIS4	0.000	
223	  GY	-0.564	-2.103	-3.553	O.3	4	HIS4	0.000	
224	  Gy	-0.564	-0.103	4.447	O.3	4	HIS4	0.000	
225	  Ha	-0.564	4.897	-2.553	O.3	4	HIS4	0.000	
226	  HC	-0.564	1.897	0.447	O.3	4	HIS4	0.000	
227	  HD	-0.564	1.897	1.447	O.3	4	HIS4	0.000	
228	  HE	-0.564	1.897	2.447	O.3	4	HIS4	0.000	
229	  HF	-0.564	1.897	3.447	O.3	4	HIS4	0.000	
230	  HG	-0.564	1.897	4.447	O.3	4	HIS4	0.000	
231	  HM	-0.564	2.897	1.447	O.3	4	HIS4	0.000	
232	  HN	-0.564	2.897	2.447	O.3	4	HIS4	0.000	
233	  HO	-0.564	2.897	3.447	O.3	4	HIS4	0.000	
234	  HP	-0.564	2.897	4.447	O.3	4	HIS4	0.000	
235	  HQ	-0.564	3.897	-3.553	O.3	4	HIS4	0.000	
236	  HV	-0.564	3.897	1.447	O.3	4	HIS4	0.000	
237	  HW	-0.564	3.897	2.447	O.3	4	HIS4	0.000	
238	  HX	-0.564	3.897	3.447	O.3	4	HIS4	0.000	
239	  HY	-0.564	3.897	4.447	O.3	4	HIS4	0.000	
240	  H0	0.436	-1.103	-3.553	O.3	5	HIS5	0.000	
241	  H1	0.436	-1.103	-2.553	O.3	5	HIS5	0.000	
242	  H3	0.436	-1.103	-0.553	O.3	5	HIS5	0.000	
243	  H4	0.436	-1.103	0.447	O.3	5	HIS5	0.000	
244	  H5	0.436	-1.103	1.447	O.3	5	HIS5	0.000	
245	  H6	0.436	-1.103	2.447	O.3	5	HIS5	0.000	
246	  H7	0.436	-1.103	3.447	O.3	5	HIS5	0.000	
247	  H8	0.436	-1.103	4.447	O.3	5	HIS5	0.000	
248	  H9	0.436	-0.103	-3.553	O.3	5	HIS5	0.000	
249	  Hf	-0.564	4.897	2.447	O.3	5	HIS5	0.000	
250	  Hg	-0.564	4.897	3.447	O.3	5	HIS5	0.000	
251	  Hi	0.436	-3.103	-3.553	O.3	5	HIS5	0.000	
252	  Hj	0.436	-3.103	-2.553	O.3	5	HIS5	0.000	
253	  Hk	0.436	-3.103	-1.553	O.3	5	HIS5	0.000	
254	  Hl	0.436	-3.103	-0.553	O.3	5	HIS5	0.000	
255	  Hm	0.436	-3.103	0.447	O.3	5	HIS5	0.000	
256	  Hn	0.436	-3.103	1.447	O.3	5	HIS5	0.000	
257	  Ho	0.436	-3.103	2.447	O.3	5	HIS5	0.000	
258	  Hp	0.436	-3.103	3.447	O.3	5	HIS5	0.000	
259	  Hq	0.436	-3.103	4.447	O.3	5	HIS5	0.000	
260	  Hr	0.436	-2.103	-3.553	O.3	5	HIS5	0.000	
261	  Hs	0.436	-2.103	-2.553	O.3	5	HIS5	0.000	
262	  Ht	0.436	-2.103	-1.553	O.3	5	HIS5	0.000	
263	  Hu	0.436	-2.103	-0.553	O.3	5	HIS5	0.000	
264	  Hw	0.436	-2.103	1.447	O.3	5	HIS5	0.000	
265	  Hx	0.436	-2.103	2.447	O.3	5	HIS5	0.000	
266	  Hy	0.436	-2.103	3.447	O.3	5	HIS5	0.000	
267	  Hz	0.436	-2.103	4.447	O.3	5	HIS5	0.000	
268	  I+	1.436	-2.103	-3.553	O.3	5	HIS5	0.000	
269	  I0	0.436	4.897	4.447	O.3	5	HIS5	0.000	
270	  I2	1.436	-3.103	-2.553	O.3	5	HIS5	0.000	
271	  I7	1.436	-3.103	2.447	O.3	5	HIS5	0.000	
272	  I8	1.436	-3.103	3.447	O.3	5	HIS5	0.000	
273	  I9	1.436	-3.103	4.447	O.3	5	HIS5	0.000	
274	  ID	0.436	-0.103	0.447	O.3	5	HIS5	0.000	
275	  IE	0.436	-0.103	1.447	O.3	5	HIS5	0.000	
276	  IF	0.436	-0.103	2.447	O.3	5	HIS5	0.000	
277	  IG	0.436	-0.103	3.447	O.3	5	HIS5	0.000	
278	  Ig	0.436	2.897	2.447	O.3	5	HIS5	0.000	
279	  IH	0.436	-0.103	4.447	O.3	5	HIS5	0.000	
280	  Ih	0.436	2.897	3.447	O.3	5	HIS5	0.000	
281	  Ii	0.436	2.897	4.447	O.3	5	HIS5	0.000	
282	  IM	0.436	0.897	0.447	O.3	5	HIS5	0.000	
283	  IN	0.436	0.897	1.447	O.3	5	HIS5	0.000	
284	  IO	0.436	0.897	2.447	O.3	5	HIS5	0.000	
285	  IP	0.436	0.897	3.447	O.3	5	HIS5	0.000	
286	  Ip	0.436	3.897	2.447	O.3	5	HIS5	0.000	
287	  IQ	0.436	0.897	4.447	O.3	5	HIS5	0.000	
288	  Iq	0.436	3.897	3.447	O.3	5	HIS5	0.000	
289	  Ir	0.436	3.897	4.447	O.3	5	HIS5	0.000	
290	  Is	0.436	4.897	-3.553	O.3	5	HIS5	0.000	
291	  IW	0.436	1.897	1.447	O.3	5	HIS5	0.000	
292	  IX	0.436	1.897	2.447	O.3	5	HIS5	0.000	
293	  Ix	0.436	4.897	1.447	O.3	5	HIS5	0.000	
294	  IY	0.436	1.897	3.447	O.3	5	HIS5	0.000	
295	  Iy	0.436	4.897	2.447	O.3	5	HIS5	0.000	
296	  IZ	0.436	1.897	4.447	O.3	5	HIS5	0.000	
297	  Iz	0.436	4.897	3.447	O.3	5	HIS5	0.000	
298	  JB	1.436	-2.103	-2.553	O.3	5	HIS5	0.000	
299	  JC	1.436	-2.103	-1.553	O.3	5	HIS5	0.000	
300	  JD	1.436	-2.103	-0.553	O.3	5	HIS5	0.000	
301	  JE	1.436	-2.103	0.447	O.3	5	HIS5	0.000	
302	  J+	1.436	3.897	4.447	O.3	6	HIS6	0.000	
303	  J0	1.436	2.897	3.447	O.3	6	HIS6	0.000	
304	  J1	1.436	2.897	4.447	O.3	6	HIS6	0.000	
305	  J2	1.436	3.897	-3.553	O.3	6	HIS6	0.000	
306	  J7	1.436	3.897	1.447	O.3	6	HIS6	0.000	
307	  J8	1.436	3.897	2.447	O.3	6	HIS6	0.000	
308	  J9	1.436	3.897	3.447	O.3	6	HIS6	0.000	
309	  Ja	1.436	-0.103	4.447	O.3	6	HIS6	0.000	
310	  Je	1.436	0.897	-0.553	O.3	6	HIS6	0.000	
311	  JF	1.436	-2.103	1.447	O.3	6	HIS6	0.000	
312	  Jf	1.436	0.897	0.447	O.3	6	HIS6	0.000	
313	  JG	1.436	-2.103	2.447	O.3	6	HIS6	0.000	
314	  Jg	1.436	0.897	1.447	O.3	6	HIS6	0.000	
315	  JH	1.436	-2.103	3.447	O.3	6	HIS6	0.000	
316	  Jh	1.436	0.897	2.447	O.3	6	HIS6	0.000	
317	  JI	1.436	-2.103	4.447	O.3	6	HIS6	0.000	
318	  Ji	1.436	0.897	3.447	O.3	6	HIS6	0.000	
319	  Jj	1.436	0.897	4.447	O.3	6	HIS6	0.000	
320	  Jk	1.436	1.897	-3.553	O.3	6	HIS6	0.000	
321	  JM	1.436	-1.103	-0.553	O.3	6	HIS6	0.000	
322	  JN	1.436	-1.103	0.447	O.3	6	HIS6	0.000	
323	  JO	1.436	-1.103	1.447	O.3	6	HIS6	0.000	
324	  Jo	1.436	1.897	0.447	O.3	6	HIS6	0.000	
325	  JP	1.436	-1.103	2.447	O.3	6	HIS6	0.000	
326	  Jp	1.436	1.897	1.447	O.3	6	HIS6	0.000	
327	  JQ	1.436	-1.103	3.447	O.3	6	HIS6	0.000	
328	  Jq	1.436	1.897	2.447	O.3	6	HIS6	0.000	
329	  JR	1.436	-1.103	4.447	O.3	6	HIS6	0.000	
330	  Jr	1.436	1.897	3.447	O.3	6	HIS6	0.000	
331	  Js	1.436	1.897	4.447	O.3	6	HIS6	0.000	
332	  Jt	1.436	2.897	-3.553	O.3	6	HIS6	0.000	
333	  JV	1.436	-0.103	-0.553	O.3	6	HIS6	0.000	
334	  JW	1.436	-0.103	0.447	O.3	6	HIS6	0.000	
335	  JX	1.436	-0.103	1.447	O.3	6	HIS6	0.000	
336	  JY	1.436	-0.103	2.447	O.3	6	HIS6	0.000	
337	  Jy	1.436	2.897	1.447	O.3	6	HIS6	0.000	
338	  JZ	1.436	-0.103	3.447	O.3	6	HIS6	0.000	
339	  Jz	1.436	2.897	2.447	O.3	6	HIS6	0.000	
340	  Ka	2.436	-2.103	3.447	O.3	6	HIS6	0.000	
341	  KB	1.436	4.897	-3.553	O.3	6	HIS6	0.000	
342	  Kb	2.436	-2.103	4.447	O.3	6	HIS6	0.000	
343	  KC	1.436	4.897	-2.553	O.3	6	HIS6	0.000	
344	  Kf	2.436	-1.103	-0.553	O.3	6	HIS6	0.000	
345	  KG	1.436	4.897	1.447	O.3	6	HIS6	0.000	
346	  Kg	2.436	-1.103	0.447	O.3	6	HIS6	0.000	
347	  KH	1.436	4.897	2.447	O.3	6	HIS6	0.000	
348	  Kh	2.436	-1.103	1.447	O.3	6	HIS6	0.000	
349	  KI	1.436	4.897	3.447	O.3	6	HIS6	0.000	
350	  Ki	2.436	-1.103	2.447	O.3	6	HIS6	0.000	
351	  KJ	1.436	4.897	4.447	O.3	6	HIS6	0.000	
352	  Kj	2.436	-1.103	3.447	O.3	6	HIS6	0.000	
353	  Kk	2.436	-1.103	4.447	O.3	6	HIS6	0.000	
354	  Kp	2.436	-0.103	0.447	O.3	6	HIS6	0.000	
355	  KQ	2.436	-3.103	2.447	O.3	6	HIS6	0.000	
356	  Kq	2.436	-0.103	1.447	O.3	6	HIS6	0.000	
357	  KR	2.436	-3.103	3.447	O.3	6	HIS6	0.000	
358	  KS	2.436	-3.103	4.447	O.3	6	HIS6	0.000	
359	  KW	2.436	-2.103	-0.553	O.3	6	HIS6	0.000	
360	  KY	2.436	-2.103	1.447	O.3	6	HIS6	0.000	
361	  KZ	2.436	-2.103	2.447	O.3	6	HIS6	0.000	
362	  K+	2.436	1.897	3.447	O.3	7	HIS7	0.000	
363	  K0	2.436	0.897	2.447	O.3	7	HIS7	0.000	
364	  K1	2.436	0.897	3.447	O.3	7	HIS7	0.000	
365	  K2	2.436	0.897	4.447	O.3	7	HIS7	0.000	
366	  K5	2.436	1.897	-1.553	O.3	7	HIS7	0.000	
367	  K6	2.436	1.897	-0.553	O.3	7	HIS7	0.000	
368	  K7	2.436	1.897	0.447	O.3	7	HIS7	0.000	
369	  K8	2.436	1.897	1.447	O.3	7	HIS7	0.000	
370	  K9	2.436	1.897	2.447	O.3	7	HIS7	0.000	
371	  Kr	2.436	-0.103	2.447	O.3	7	HIS7	0.000	
372	  Ks	2.436	-0.103	3.447	O.3	7	HIS7	0.000	
373	  Kt	2.436	-0.103	4.447	O.3	7	HIS7	0.000	
374	  Kx	2.436	0.897	-0.553	O.3	7	HIS7	0.000	
375	  Ky	2.436	0.897	0.447	O.3	7	HIS7	0.000	
376	  Kz	2.436	0.897	1.447	O.3	7	HIS7	0.000	
377	  L+	3.436	-0.103	2.447	O.3	7	HIS7	0.000	
378	  L0	3.436	-1.103	1.447	O.3	7	HIS7	0.000	
379	  L1	3.436	-1.103	2.447	O.3	7	HIS7	0.000	
380	  L2	3.436	-1.103	3.447	O.3	7	HIS7	0.000	
381	  L3	3.436	-1.103	4.447	O.3	7	HIS7	0.000	
382	  L7	3.436	-0.103	-0.553	O.3	7	HIS7	0.000	
383	  L8	3.436	-0.103	0.447	O.3	7	HIS7	0.000	
384	  L9	3.436	-0.103	1.447	O.3	7	HIS7	0.000	
385	  La	2.436	4.897	2.447	O.3	7	HIS7	0.000	
386	  LB	2.436	1.897	4.447	O.3	7	HIS7	0.000	
387	  Lb	2.436	4.897	3.447	O.3	7	HIS7	0.000	
388	  Lc	2.436	4.897	4.447	O.3	7	HIS7	0.000	
389	  LD	2.436	2.897	-2.553	O.3	7	HIS7	0.000	
390	  Le	3.436	-3.103	-2.553	O.3	7	HIS7	0.000	
391	  LF	2.436	2.897	-0.553	O.3	7	HIS7	0.000	
392	  LH	2.436	2.897	1.447	O.3	7	HIS7	0.000	
393	  LI	2.436	2.897	2.447	O.3	7	HIS7	0.000	
394	  LJ	2.436	2.897	3.447	O.3	7	HIS7	0.000	
395	  Lj	3.436	-3.103	2.447	O.3	7	HIS7	0.000	
396	  LK	2.436	2.897	4.447	O.3	7	HIS7	0.000	
397	  Lk	3.436	-3.103	3.447	O.3	7	HIS7	0.000	
398	  Ll	3.436	-3.103	4.447	O.3	7	HIS7	0.000	
399	  LM	2.436	3.897	-2.553	O.3	7	HIS7	0.000	
400	  Lm	3.436	-2.103	-3.553	O.3	7	HIS7	0.000	
401	  LN	2.436	3.897	-1.553	O.3	7	HIS7	0.000	
402	  Lq	3.436	-2.103	0.447	O.3	7	HIS7	0.000	
403	  LR	2.436	3.897	2.447	O.3	7	HIS7	0.000	
404	  Lr	3.436	-2.103	1.447	O.3	7	HIS7	0.000	
405	  LS	2.436	3.897	3.447	O.3	7	HIS7	0.000	
406	  Ls	3.436	-2.103	2.447	O.3	7	HIS7	0.000	
407	  LT	2.436	3.897	4.447	O.3	7	HIS7	0.000	
408	  Lt	3.436	-2.103	3.447	O.3	7	HIS7	0.000	
409	  LU	2.436	4.897	-3.553	O.3	7	HIS7	0.000	
410	  Lu	3.436	-2.103	4.447	O.3	7	HIS7	0.000	
411	  LW	2.436	4.897	-1.553	O.3	7	HIS7	0.000	
412	  Ly	3.436	-1.103	-0.553	O.3	7	HIS7	0.000	
413	  LZ	2.436	4.897	1.447	O.3	7	HIS7	0.000	
414	  Lz	3.436	-1.103	0.447	O.3	7	HIS7	0.000	
415	  MB	3.436	-0.103	3.447	O.3	7	HIS7	0.000	
416	  MC	3.436	-0.103	4.447	O.3	7	HIS7	0.000	
417	  MG	3.436	0.897	-0.553	O.3	7	HIS7	0.000	
418	  MH	3.436	0.897	0.447	O.3	7	HIS7	0.000	
419	  MI	3.436	0.897	1.447	O.3	7	HIS7	0.000	
420	  MJ	3.436	0.897	2.447	O.3	7	HIS7	0.000	
421	  MK	3.436	0.897	3.447	O.3	7	HIS7	0.000	
422	  ML	3.436	0.897	4.447	O.3	7	HIS7	0.000	
423	  MP	3.436	1.897	-0.553	O.3	7	HIS7	0.000	
424	  MQ	3.436	1.897	0.447	O.3	7	HIS7	0.000	
425	  MR	3.436	1.897	1.447	O.3	7	HIS7	0.000	
426	  MS	3.436	1.897	2.447	O.3	7	HIS7	0.000	
427	  Ma	3.436	2.897	1.447	O.3	8	HIS8	0.000	
428	  Mb	3.436	2.897	2.447	O.3	8	HIS8	0.000	
429	  Mc	3.436	2.897	3.447	O.3	8	HIS8	0.000	
430	  Md	3.436	2.897	4.447	O.3	8	HIS8	0.000	
431	  Mf	3.436	3.897	-2.553	O.3	8	HIS8	0.000	
432	  Mg	3.436	3.897	-1.553	O.3	8	HIS8	0.000	
433	  Mh	3.436	3.897	-0.553	O.3	8	HIS8	0.000	
434	  Mj	3.436	3.897	1.447	O.3	8	HIS8	0.000	
435	  Mk	3.436	3.897	2.447	O.3	8	HIS8	0.000	
436	  Ml	3.436	3.897	3.447	O.3	8	HIS8	0.000	
437	  Mm	3.436	3.897	4.447	O.3	8	HIS8	0.000	
438	  Mn	3.436	4.897	-3.553	O.3	8	HIS8	0.000	
439	  Mp	3.436	4.897	-1.553	O.3	8	HIS8	0.000	
440	  Mq	3.436	4.897	-0.553	O.3	8	HIS8	0.000	
441	  Ms	3.436	4.897	1.447	O.3	8	HIS8	0.000	
442	  MT	3.436	1.897	3.447	O.3	8	HIS8	0.000	
443	  Mt	3.436	4.897	2.447	O.3	8	HIS8	0.000	
444	  MU	3.436	1.897	4.447	O.3	8	HIS8	0.000	
445	  Mu	3.436	4.897	3.447	O.3	8	HIS8	0.000	
446	  Mv	3.436	4.897	4.447	O.3	8	HIS8	0.000	
447	  MX	3.436	2.897	-1.553	O.3	8	HIS8	0.000	
448	  MY	3.436	2.897	-0.553	O.3	8	HIS8	0.000	
449	  MZ	3.436	2.897	0.447	O.3	8	HIS8	0.000	
@<TRIPOS>BOND
1 1 20 1
2 1 21 1
3 1 23 1
4 1 35 1
5 1 36 1
6 1 50 1
7 1 61 1
8 1 62 1
9 1 73 1
10 1 74 1
11 1 75 1
12 2 3 1
13 2 7 1
14 2 64 1
15 2 71 1
16 2 89 1
17 2 98 1
18 2 100 1
19 2 112 1
20 3 4 1
21 3 7 1
22 3 13 1
23 3 64 1
24 3 89 1
25 3 91 1
26 3 98 1
27 3 100 1
28 3 102 1
29 3 112 1
30 3 114 1
31 4 7 1
32 4 13 1
33 4 89 1
34 4 91 1
35 4 100 1
36 4 102 1
37 4 112 1
38 4 114 1
39 5 6 1
40 5 15 1
41 5 17 1
42 5 93 1
43 5 95 1
44 5 104 1
45 5 106 1
46 6 15 1
47 6 17 1
48 6 93 1
49 6 95 1
50 6 104 1
51 6 106 1
52 7 13 1
53 7 22 1
54 7 24 1
55 7 26 1
56 7 90 1
57 7 92 1
58 7 94 1
59 7 98 1
60 7 100 1
61 7 102 1
62 7 112 1
63 7 114 1
64 8 10 1
65 8 25 1
66 8 27 1
67 8 28 1
68 8 43 1
69 8 44 1
70 8 66 1
71 8 67 1
72 8 68 1
73 8 76 1
74 8 77 1
75 8 78 1
76 9 18 1
77 9 19 1
78 9 32 1
79 9 33 1
80 9 45 1
81 9 46 1
82 10 27 1
83 10 28 1
84 10 44 1
85 10 67 1
86 10 68 1
87 10 77 1
88 10 78 1
89 11 29 1
90 11 38 1
91 11 47 1
92 11 69 1
93 11 70 1
94 11 72 1
95 11 79 1
96 11 80 1
97 12 14 1
98 12 23 1
99 12 25 1
100 12 27 1
101 12 83 1
102 12 84 1
103 12 85 1
104 12 111 1
105 12 113 1
106 12 115 1
107 13 24 1
108 13 26 1
109 13 92 1
110 13 94 1
111 13 100 1
112 13 102 1
113 13 112 1
114 13 114 1
115 14 16 1
116 14 25 1
117 14 27 1
118 14 28 1
119 14 84 1
120 14 85 1
121 14 86 1
122 14 113 1
123 14 115 1
124 14 116 1
125 15 17 1
126 15 96 1
127 15 97 1
128 15 104 1
129 15 106 1
130 16 27 1
131 16 28 1
132 16 85 1
133 16 86 1
134 16 115 1
135 16 116 1
136 17 96 1
137 17 97 1
138 17 104 1
139 17 106 1
140 18 19 1
141 18 29 1
142 18 72 1
143 18 87 1
144 18 107 1
145 18 108 1
146 18 117 1
147 19 29 1
148 19 72 1
149 19 87 1
150 19 107 1
151 19 108 1
152 19 117 1
153 20 21 1
154 20 73 1
155 20 74 1
156 20 82 1
157 20 88 1
158 20 109 1
159 20 110 1
160 21 23 1
161 21 73 1
162 21 74 1
163 21 75 1
164 21 81 1
165 21 82 1
166 21 83 1
167 21 88 1
168 21 109 1
169 21 110 1
170 21 111 1
171 22 24 1
172 22 30 1
173 22 90 1
174 22 92 1
175 22 99 1
176 22 101 1
177 22 103 1
178 22 112 1
179 23 25 1
180 23 74 1
181 23 75 1
182 23 76 1
183 23 81 1
184 23 82 1
185 23 83 1
186 23 84 1
187 23 88 1
188 23 110 1
189 23 111 1
190 23 113 1
191 23 118 1
192 24 26 1
193 24 30 1
194 24 31 1
195 24 90 1
196 24 92 1
197 24 94 1
198 24 101 1
199 24 103 1
200 24 105 1
201 24 112 1
202 24 114 1
203 25 27 1
204 25 75 1
205 25 76 1
206 25 77 1
207 25 81 1
208 25 83 1
209 25 84 1
210 25 85 1
211 25 111 1
212 25 113 1
213 25 115 1
214 25 118 1
215 25 119 1
216 26 31 1
217 26 92 1
218 26 94 1
219 26 103 1
220 26 105 1
221 26 112 1
222 26 114 1
223 27 28 1
224 27 76 1
225 27 77 1
226 27 78 1
227 27 84 1
228 27 85 1
229 27 86 1
230 27 113 1
231 27 115 1
232 27 116 1
233 27 118 1
234 27 119 1
235 27 120 1
236 28 77 1
237 28 78 1
238 28 85 1
239 28 86 1
240 28 115 1
241 28 116 1
242 28 119 1
243 28 120 1
244 29 72 1
245 29 79 1
246 29 80 1
247 29 87 1
248 29 117 1
249 29 121 1
250 30 90 1
251 30 92 1
252 30 99 1
253 30 101 1
254 30 103 1
255 31 92 1
256 31 94 1
257 31 103 1
258 31 105 1
259 18 32 1
260 19 32 1
261 32 33 1
262 32 107 1
263 32 108 1
264 32 117 1
265 18 33 1
266 19 33 1
267 33 34 1
268 33 107 1
269 33 108 1
270 33 117 1
271 19 34 1
272 20 34 1
273 34 35 1
274 34 108 1
275 34 109 1
276 20 35 1
277 21 35 1
278 35 36 1
279 35 82 1
280 35 109 1
281 35 110 1
282 20 36 1
283 21 36 1
284 23 36 1
285 36 82 1
286 36 83 1
287 36 109 1
288 36 110 1
289 36 111 1
290 19 37 1
291 20 37 1
292 33 37 1
293 34 37 1
294 35 37 1
295 37 39 1
296 37 46 1
297 37 48 1
298 37 49 1
299 29 38 1
300 38 47 1
301 38 69 1
302 38 70 1
303 38 72 1
304 38 79 1
305 38 80 1
306 1 39 1
307 20 39 1
308 21 39 1
309 34 39 1
310 35 39 1
311 36 39 1
312 39 40 1
313 39 48 1
314 39 49 1
315 1 40 1
316 20 40 1
317 21 40 1
318 23 40 1
319 35 40 1
320 36 40 1
321 40 41 1
322 40 49 1
323 40 50 1
324 1 41 1
325 12 41 1
326 21 41 1
327 23 41 1
328 25 41 1
329 36 41 1
330 41 50 1
331 41 51 1
332 42 43 1
333 42 53 1
334 42 64 1
335 42 65 1
336 42 66 1
337 42 71 1
338 42 74 1
339 42 75 1
340 42 76 1
341 43 44 1
342 43 53 1
343 43 55 1
344 43 64 1
345 43 65 1
346 43 66 1
347 43 67 1
348 43 71 1
349 43 75 1
350 43 76 1
351 43 77 1
352 43 89 1
353 44 53 1
354 44 55 1
355 44 57 1
356 44 64 1
357 44 66 1
358 44 67 1
359 44 68 1
360 44 76 1
361 44 77 1
362 44 78 1
363 44 89 1
364 44 91 1
365 18 45 1
366 19 45 1
367 29 45 1
368 32 45 1
369 33 45 1
370 45 46 1
371 45 56 1
372 45 58 1
373 45 72 1
374 18 46 1
375 19 46 1
376 29 46 1
377 32 46 1
378 33 46 1
379 34 46 1
380 46 48 1
381 46 56 1
382 46 58 1
383 46 60 1
384 46 72 1
385 47 59 1
386 47 69 1
387 47 70 1
388 47 79 1
389 47 80 1
390 47 93 1
391 47 95 1
392 19 48 1
393 20 48 1
394 33 48 1
395 34 48 1
396 35 48 1
397 48 49 1
398 48 58 1
399 48 60 1
400 48 72 1
401 48 73 1
402 1 49 1
403 20 49 1
404 21 49 1
405 34 49 1
406 35 49 1
407 36 49 1
408 49 60 1
409 49 61 1
410 49 73 1
411 49 74 1
412 12 50 1
413 21 50 1
414 23 50 1
415 25 50 1
416 36 50 1
417 50 51 1
418 50 61 1
419 50 62 1
420 50 63 1
421 50 74 1
422 50 75 1
423 50 76 1
424 8 51 1
425 12 51 1
426 14 51 1
427 23 51 1
428 25 51 1
429 27 51 1
430 51 52 1
431 51 62 1
432 51 63 1
433 51 75 1
434 51 76 1
435 51 77 1
436 8 52 1
437 10 52 1
438 12 52 1
439 14 52 1
440 16 52 1
441 25 52 1
442 27 52 1
443 28 52 1
444 52 54 1
445 52 63 1
446 52 76 1
447 52 77 1
448 52 78 1
449 2 53 1
450 3 53 1
451 53 55 1
452 53 64 1
453 53 65 1
454 53 66 1
455 53 67 1
456 53 71 1
457 53 89 1
458 53 98 1
459 53 100 1
460 8 54 1
461 10 54 1
462 14 54 1
463 16 54 1
464 27 54 1
465 28 54 1
466 54 77 1
467 54 78 1
468 2 55 1
469 3 55 1
470 4 55 1
471 55 57 1
472 55 64 1
473 55 66 1
474 55 67 1
475 55 68 1
476 55 89 1
477 55 91 1
478 55 98 1
479 55 100 1
480 55 102 1
481 11 56 1
482 18 56 1
483 19 56 1
484 29 56 1
485 38 56 1
486 56 58 1
487 56 72 1
488 56 79 1
489 56 80 1
490 3 57 1
491 4 57 1
492 57 67 1
493 57 68 1
494 57 89 1
495 57 91 1
496 57 100 1
497 57 102 1
498 11 58 1
499 18 58 1
500 19 58 1
501 29 58 1
502 38 58 1
503 58 60 1
504 58 72 1
505 58 79 1
506 58 80 1
507 5 59 1
508 6 59 1
509 59 69 1
510 59 70 1
511 59 93 1
512 59 95 1
513 59 104 1
514 59 106 1
515 19 60 1
516 20 60 1
517 38 60 1
518 60 72 1
519 60 73 1
520 60 80 1
521 20 61 1
522 21 61 1
523 23 61 1
524 42 61 1
525 61 62 1
526 61 65 1
527 61 73 1
528 61 74 1
529 61 75 1
530 21 62 1
531 23 62 1
532 25 62 1
533 42 62 1
534 43 62 1
535 62 63 1
536 62 65 1
537 62 66 1
538 62 74 1
539 62 75 1
540 62 76 1
541 8 63 1
542 23 63 1
543 25 63 1
544 27 63 1
545 42 63 1
546 43 63 1
547 44 63 1
548 63 65 1
549 63 66 1
550 63 67 1
551 63 75 1
552 63 76 1
553 63 77 1
554 64 89 1
555 64 98 1
556 64 100 1
557 64 123 1
558 64 124 1
559 64 125 1
560 64 135 1
561 64 136 1
562 64 147 1
563 64 148 1
564 64 149 1
565 64 65 1
566 65 66 1
567 65 71 1
568 65 81 1
569 65 88 1
570 65 118 1
571 65 122 1
572 65 123 1
573 65 124 1
574 65 146 1
575 65 147 1
576 65 148 1
577 64 66 1
578 66 67 1
579 66 71 1
580 66 81 1
581 66 89 1
582 66 118 1
583 66 119 1
584 66 123 1
585 66 124 1
586 66 125 1
587 66 147 1
588 66 148 1
589 66 149 1
590 64 67 1
591 67 68 1
592 67 89 1
593 67 91 1
594 67 118 1
595 67 119 1
596 67 120 1
597 67 124 1
598 67 125 1
599 67 126 1
600 67 148 1
601 67 149 1
602 67 151 1
603 68 89 1
604 68 91 1
605 68 119 1
606 68 120 1
607 68 125 1
608 68 126 1
609 68 149 1
610 68 151 1
611 69 70 1
612 69 93 1
613 69 95 1
614 69 121 1
615 69 127 1
616 69 128 1
617 69 153 1
618 70 93 1
619 70 95 1
620 70 121 1
621 70 127 1
622 70 128 1
623 70 153 1
624 70 155 1
625 64 71 1
626 71 98 1
627 71 122 1
628 71 123 1
629 71 124 1
630 71 135 1
631 71 146 1
632 71 147 1
633 71 148 1
634 72 79 1
635 72 80 1
636 72 87 1
637 72 117 1
638 72 121 1
639 73 74 1
640 73 82 1
641 73 88 1
642 73 122 1
643 65 74 1
644 74 75 1
645 74 81 1
646 74 82 1
647 74 83 1
648 74 88 1
649 74 122 1
650 74 123 1
651 65 75 1
652 66 75 1
653 75 76 1
654 75 81 1
655 75 82 1
656 75 83 1
657 75 84 1
658 75 88 1
659 75 118 1
660 75 122 1
661 75 123 1
662 75 124 1
663 65 76 1
664 66 76 1
665 67 76 1
666 76 77 1
667 76 81 1
668 76 83 1
669 76 84 1
670 76 85 1
671 76 118 1
672 76 119 1
673 76 123 1
674 76 124 1
675 76 125 1
676 66 77 1
677 67 77 1
678 68 77 1
679 77 78 1
680 77 84 1
681 77 85 1
682 77 86 1
683 77 118 1
684 77 119 1
685 77 120 1
686 77 124 1
687 77 125 1
688 77 126 1
689 67 78 1
690 68 78 1
691 78 85 1
692 78 86 1
693 78 119 1
694 78 120 1
695 78 125 1
696 78 126 1
697 69 79 1
698 70 79 1
699 79 80 1
700 79 87 1
701 79 121 1
702 79 127 1
703 79 128 1
704 69 80 1
705 70 80 1
706 80 87 1
707 80 121 1
708 80 127 1
709 80 128 1
710 81 118 1
711 81 122 1
712 81 123 1
713 81 124 1
714 81 158 1
715 81 160 1
716 81 162 1
717 81 167 1
718 81 169 1
719 81 176 1
720 81 178 1
721 81 82 1
722 82 83 1
723 82 88 1
724 82 134 1
725 82 157 1
726 82 167 1
727 82 176 1
728 81 83 1
729 83 84 1
730 83 88 1
731 83 118 1
732 83 157 1
733 83 159 1
734 83 167 1
735 83 169 1
736 83 176 1
737 83 178 1
738 81 84 1
739 84 85 1
740 84 118 1
741 84 119 1
742 84 157 1
743 84 159 1
744 84 161 1
745 84 167 1
746 84 169 1
747 84 171 1
748 84 176 1
749 84 178 1
750 84 180 1
751 85 86 1
752 85 118 1
753 85 119 1
754 85 120 1
755 85 159 1
756 85 161 1
757 85 163 1
758 85 169 1
759 85 171 1
760 85 173 1
761 85 178 1
762 85 180 1
763 85 182 1
764 86 119 1
765 86 120 1
766 86 161 1
767 86 163 1
768 86 171 1
769 86 173 1
770 86 180 1
771 86 182 1
772 87 121 1
773 87 165 1
774 87 184 1
775 81 88 1
776 88 122 1
777 88 123 1
778 88 158 1
779 88 160 1
780 88 167 1
781 88 176 1
782 89 91 1
783 89 98 1
784 89 100 1
785 89 102 1
786 89 124 1
787 89 125 1
788 89 126 1
789 89 135 1
790 89 136 1
791 89 137 1
792 89 148 1
793 89 149 1
794 89 151 1
795 90 92 1
796 90 99 1
797 90 101 1
798 90 103 1
799 90 129 1
800 90 130 1
801 90 141 1
802 90 142 1
803 90 150 1
804 90 152 1
805 91 100 1
806 91 102 1
807 91 125 1
808 91 126 1
809 91 136 1
810 91 137 1
811 91 149 1
812 91 151 1
813 92 94 1
814 92 101 1
815 92 103 1
816 92 105 1
817 92 129 1
818 92 130 1
819 92 131 1
820 92 141 1
821 92 142 1
822 92 143 1
823 92 150 1
824 92 152 1
825 92 154 1
826 93 95 1
827 93 104 1
828 93 106 1
829 93 127 1
830 93 128 1
831 93 138 1
832 93 139 1
833 93 153 1
834 94 103 1
835 94 105 1
836 94 130 1
837 94 131 1
838 94 142 1
839 94 143 1
840 94 152 1
841 94 154 1
842 95 104 1
843 95 106 1
844 95 127 1
845 95 128 1
846 95 138 1
847 95 139 1
848 95 140 1
849 95 153 1
850 95 155 1
851 96 97 1
852 96 144 1
853 96 145 1
854 96 156 1
855 97 144 1
856 97 145 1
857 97 156 1
858 98 100 1
859 98 112 1
860 98 135 1
861 98 136 1
862 98 141 1
863 98 142 1
864 98 147 1
865 98 148 1
866 98 149 1
867 99 101 1
868 99 129 1
869 99 150 1
870 100 102 1
871 100 112 1
872 100 114 1
873 100 135 1
874 100 136 1
875 100 137 1
876 100 141 1
877 100 142 1
878 100 143 1
879 100 148 1
880 100 149 1
881 100 151 1
882 101 103 1
883 101 129 1
884 101 130 1
885 101 150 1
886 101 152 1
887 102 112 1
888 102 114 1
889 102 136 1
890 102 137 1
891 102 142 1
892 102 143 1
893 102 149 1
894 102 151 1
895 103 105 1
896 103 129 1
897 103 130 1
898 103 131 1
899 103 150 1
900 103 152 1
901 103 154 1
902 104 106 1
903 104 138 1
904 104 139 1
905 104 144 1
906 104 145 1
907 104 153 1
908 105 130 1
909 105 131 1
910 105 152 1
911 105 154 1
912 106 138 1
913 106 139 1
914 106 140 1
915 106 144 1
916 106 145 1
917 106 153 1
918 106 155 1
919 107 108 1
920 107 117 1
921 107 132 1
922 107 133 1
923 107 165 1
924 108 117 1
925 108 132 1
926 108 133 1
927 108 165 1
928 82 109 1
929 109 110 1
930 109 134 1
931 82 110 1
932 83 110 1
933 110 111 1
934 110 134 1
935 110 157 1
936 110 167 1
937 82 111 1
938 83 111 1
939 84 111 1
940 111 113 1
941 111 157 1
942 111 159 1
943 111 167 1
944 111 169 1
945 90 112 1
946 92 112 1
947 94 112 1
948 112 114 1
949 112 135 1
950 112 136 1
951 112 137 1
952 112 141 1
953 112 142 1
954 112 143 1
955 112 150 1
956 112 152 1
957 112 154 1
958 83 113 1
959 84 113 1
960 85 113 1
961 113 115 1
962 113 157 1
963 113 159 1
964 113 161 1
965 113 167 1
966 113 169 1
967 113 171 1
968 92 114 1
969 94 114 1
970 114 136 1
971 114 137 1
972 114 142 1
973 114 143 1
974 114 152 1
975 114 154 1
976 84 115 1
977 85 115 1
978 86 115 1
979 115 116 1
980 115 159 1
981 115 161 1
982 115 163 1
983 115 169 1
984 115 171 1
985 115 173 1
986 85 116 1
987 86 116 1
988 116 161 1
989 116 163 1
990 116 171 1
991 116 173 1
992 87 117 1
993 117 132 1
994 117 133 1
995 117 165 1
996 118 119 1
997 118 123 1
998 118 124 1
999 118 125 1
1000 118 160 1
1001 118 162 1
1002 118 164 1
1003 118 167 1
1004 118 169 1
1005 118 171 1
1006 118 176 1
1007 118 178 1
1008 118 180 1
1009 119 120 1
1010 119 124 1
1011 119 125 1
1012 119 126 1
1013 119 162 1
1014 119 164 1
1015 119 166 1
1016 119 169 1
1017 119 171 1
1018 119 173 1
1019 119 178 1
1020 119 180 1
1021 119 182 1
1022 120 125 1
1023 120 126 1
1024 120 164 1
1025 120 166 1
1026 120 171 1
1027 120 173 1
1028 120 180 1
1029 120 182 1
1030 121 127 1
1031 121 128 1
1032 121 184 1
1033 122 123 1
1034 122 146 1
1035 122 147 1
1036 122 158 1
1037 122 160 1
1038 122 168 1
1039 122 170 1
1040 122 176 1
1041 123 124 1
1042 123 146 1
1043 123 147 1
1044 123 148 1
1045 123 158 1
1046 123 160 1
1047 123 162 1
1048 123 168 1
1049 123 170 1
1050 123 172 1
1051 123 176 1
1052 123 178 1
1053 124 125 1
1054 124 147 1
1055 124 148 1
1056 124 149 1
1057 124 160 1
1058 124 162 1
1059 124 164 1
1060 124 170 1
1061 124 172 1
1062 124 174 1
1063 124 176 1
1064 124 178 1
1065 124 180 1
1066 125 126 1
1067 125 148 1
1068 125 149 1
1069 125 151 1
1070 125 162 1
1071 125 164 1
1072 125 166 1
1073 125 172 1
1074 125 174 1
1075 125 175 1
1076 125 178 1
1077 125 180 1
1078 125 182 1
1079 126 149 1
1080 126 151 1
1081 126 164 1
1082 126 166 1
1083 126 174 1
1084 126 175 1
1085 126 180 1
1086 126 182 1
1087 127 128 1
1088 127 153 1
1089 127 184 1
1090 128 153 1
1091 128 155 1
1092 128 184 1
1093 129 130 1
1094 129 197 1
1095 129 198 1
1096 129 205 1
1097 130 131 1
1098 130 197 1
1099 130 198 1
1100 130 200 1
1101 130 205 1
1102 130 207 1
1103 131 198 1
1104 131 200 1
1105 131 205 1
1106 131 207 1
1107 132 133 1
1108 132 165 1
1109 132 209 1
1110 132 211 1
1111 132 223 1
1112 133 165 1
1113 133 209 1
1114 133 211 1
1115 133 213 1
1116 133 223 1
1117 134 213 1
1118 134 214 1
1119 135 136 1
1120 135 141 1
1121 135 142 1
1122 135 170 1
1123 135 172 1
1124 135 174 1
1125 135 179 1
1126 135 181 1
1127 135 183 1
1128 135 187 1
1129 135 188 1
1130 135 189 1
1131 136 137 1
1132 136 141 1
1133 136 142 1
1134 136 143 1
1135 136 172 1
1136 136 174 1
1137 136 175 1
1138 136 181 1
1139 136 183 1
1140 136 185 1
1141 136 188 1
1142 136 189 1
1143 136 190 1
1144 137 142 1
1145 137 143 1
1146 137 174 1
1147 137 175 1
1148 137 183 1
1149 137 185 1
1150 137 189 1
1151 137 190 1
1152 138 139 1
1153 138 144 1
1154 138 145 1
1155 138 191 1
1156 139 140 1
1157 139 144 1
1158 139 145 1
1159 139 191 1
1160 139 192 1
1161 140 145 1
1162 140 186 1
1163 140 191 1
1164 140 192 1
1165 141 142 1
1166 141 150 1
1167 141 152 1
1168 141 179 1
1169 141 181 1
1170 141 183 1
1171 141 187 1
1172 141 188 1
1173 141 189 1
1174 141 197 1
1175 141 198 1
1176 142 143 1
1177 142 150 1
1178 142 152 1
1179 142 154 1
1180 142 181 1
1181 142 183 1
1182 142 185 1
1183 142 188 1
1184 142 189 1
1185 142 190 1
1186 142 197 1
1187 142 198 1
1188 142 200 1
1189 143 152 1
1190 143 154 1
1191 143 183 1
1192 143 185 1
1193 143 189 1
1194 143 190 1
1195 143 198 1
1196 143 200 1
1197 144 145 1
1198 144 156 1
1199 144 191 1
1200 145 156 1
1201 145 191 1
1202 145 192 1
1203 146 147 1
1204 146 158 1
1205 146 160 1
1206 146 168 1
1207 146 170 1
1208 146 177 1
1209 146 179 1
1210 135 147 1
1211 147 148 1
1212 147 158 1
1213 147 160 1
1214 147 162 1
1215 147 168 1
1216 147 170 1
1217 147 172 1
1218 147 177 1
1219 147 179 1
1220 147 181 1
1221 135 148 1
1222 136 148 1
1223 148 149 1
1224 148 160 1
1225 148 162 1
1226 148 164 1
1227 148 170 1
1228 148 172 1
1229 148 174 1
1230 148 179 1
1231 148 181 1
1232 148 183 1
1233 135 149 1
1234 136 149 1
1235 137 149 1
1236 149 151 1
1237 149 162 1
1238 149 164 1
1239 149 166 1
1240 149 172 1
1241 149 174 1
1242 149 175 1
1243 149 181 1
1244 149 183 1
1245 149 185 1
1246 129 150 1
1247 130 150 1
1248 150 152 1
1249 150 187 1
1250 150 188 1
1251 150 189 1
1252 150 197 1
1253 150 198 1
1254 150 205 1
1255 136 151 1
1256 137 151 1
1257 151 164 1
1258 151 166 1
1259 151 174 1
1260 151 175 1
1261 151 183 1
1262 151 185 1
1263 129 152 1
1264 130 152 1
1265 131 152 1
1266 152 154 1
1267 152 188 1
1268 152 189 1
1269 152 190 1
1270 152 197 1
1271 152 198 1
1272 152 200 1
1273 152 205 1
1274 152 207 1
1275 138 153 1
1276 139 153 1
1277 130 154 1
1278 131 154 1
1279 154 189 1
1280 154 190 1
1281 154 198 1
1282 154 200 1
1283 154 205 1
1284 154 207 1
1285 139 155 1
1286 140 155 1
1287 155 186 1
1288 156 191 1
1289 156 192 1
1290 157 159 1
1291 157 167 1
1292 157 169 1
1293 157 199 1
1294 157 215 1
1295 157 217 1
1296 158 160 1
1297 158 168 1
1298 158 170 1
1299 158 193 1
1300 158 204 1
1301 158 216 1
1302 158 218 1
1303 159 161 1
1304 159 167 1
1305 159 169 1
1306 159 171 1
1307 159 199 1
1308 159 201 1
1309 159 215 1
1310 159 217 1
1311 159 219 1
1312 160 162 1
1313 160 168 1
1314 160 170 1
1315 160 172 1
1316 160 193 1
1317 160 194 1
1318 160 204 1
1319 160 206 1
1320 160 216 1
1321 160 218 1
1322 160 220 1
1323 161 163 1
1324 161 169 1
1325 161 171 1
1326 161 173 1
1327 161 199 1
1328 161 201 1
1329 161 202 1
1330 161 217 1
1331 161 219 1
1332 161 221 1
1333 162 164 1
1334 162 170 1
1335 162 172 1
1336 162 174 1
1337 162 193 1
1338 162 194 1
1339 162 195 1
1340 162 204 1
1341 162 206 1
1342 162 208 1
1343 162 218 1
1344 162 220 1
1345 162 222 1
1346 163 171 1
1347 163 173 1
1348 163 201 1
1349 163 202 1
1350 163 219 1
1351 163 221 1
1352 164 166 1
1353 164 172 1
1354 164 174 1
1355 164 175 1
1356 164 194 1
1357 164 195 1
1358 164 196 1
1359 164 206 1
1360 164 208 1
1361 164 210 1
1362 164 220 1
1363 164 222 1
1364 164 224 1
1365 165 203 1
1366 165 209 1
1367 165 211 1
1368 165 223 1
1369 166 174 1
1370 166 175 1
1371 166 195 1
1372 166 196 1
1373 166 208 1
1374 166 210 1
1375 166 222 1
1376 166 224 1
1377 167 169 1
1378 167 176 1
1379 167 178 1
1380 167 199 1
1381 167 204 1
1382 167 206 1
1383 167 215 1
1384 167 217 1
1385 168 170 1
1386 168 177 1
1387 168 179 1
1388 168 193 1
1389 168 216 1
1390 168 218 1
1391 168 226 1
1392 168 227 1
1393 169 171 1
1394 169 176 1
1395 169 178 1
1396 169 180 1
1397 169 199 1
1398 169 201 1
1399 169 204 1
1400 169 206 1
1401 169 208 1
1402 169 215 1
1403 169 217 1
1404 169 219 1
1405 170 172 1
1406 170 177 1
1407 170 179 1
1408 170 181 1
1409 170 193 1
1410 170 194 1
1411 170 216 1
1412 170 218 1
1413 170 220 1
1414 170 226 1
1415 170 227 1
1416 170 228 1
1417 171 173 1
1418 171 178 1
1419 171 180 1
1420 171 182 1
1421 171 199 1
1422 171 201 1
1423 171 202 1
1424 171 206 1
1425 171 208 1
1426 171 210 1
1427 171 217 1
1428 171 219 1
1429 171 221 1
1430 172 174 1
1431 172 179 1
1432 172 181 1
1433 172 183 1
1434 172 193 1
1435 172 194 1
1436 172 195 1
1437 172 218 1
1438 172 220 1
1439 172 222 1
1440 172 227 1
1441 172 228 1
1442 172 229 1
1443 173 180 1
1444 173 182 1
1445 173 201 1
1446 173 202 1
1447 173 208 1
1448 173 210 1
1449 173 219 1
1450 173 221 1
1451 174 175 1
1452 174 181 1
1453 174 183 1
1454 174 185 1
1455 174 194 1
1456 174 195 1
1457 174 196 1
1458 174 220 1
1459 174 222 1
1460 174 224 1
1461 174 228 1
1462 174 229 1
1463 174 230 1
1464 175 183 1
1465 175 185 1
1466 175 195 1
1467 175 196 1
1468 175 222 1
1469 175 224 1
1470 175 229 1
1471 175 230 1
1472 158 176 1
1473 160 176 1
1474 162 176 1
1475 176 178 1
1476 176 199 1
1477 176 204 1
1478 176 206 1
1479 176 216 1
1480 176 218 1
1481 176 220 1
1482 177 179 1
1483 177 186 1
1484 177 187 1
1485 177 193 1
1486 177 226 1
1487 177 227 1
1488 177 231 1
1489 160 178 1
1490 162 178 1
1491 164 178 1
1492 178 180 1
1493 178 199 1
1494 178 201 1
1495 178 204 1
1496 178 206 1
1497 178 208 1
1498 178 218 1
1499 178 220 1
1500 178 222 1
1501 179 181 1
1502 179 187 1
1503 179 188 1
1504 179 193 1
1505 179 194 1
1506 179 226 1
1507 179 227 1
1508 179 228 1
1509 179 231 1
1510 179 232 1
1511 162 180 1
1512 164 180 1
1513 166 180 1
1514 180 182 1
1515 180 199 1
1516 180 201 1
1517 180 202 1
1518 180 206 1
1519 180 208 1
1520 180 210 1
1521 180 220 1
1522 180 222 1
1523 180 224 1
1524 181 183 1
1525 181 187 1
1526 181 188 1
1527 181 189 1
1528 181 193 1
1529 181 194 1
1530 181 195 1
1531 181 227 1
1532 181 228 1
1533 181 229 1
1534 181 231 1
1535 181 232 1
1536 181 233 1
1537 164 182 1
1538 166 182 1
1539 182 201 1
1540 182 202 1
1541 182 208 1
1542 182 210 1
1543 182 222 1
1544 182 224 1
1545 183 185 1
1546 183 188 1
1547 183 189 1
1548 183 190 1
1549 183 194 1
1550 183 195 1
1551 183 196 1
1552 183 228 1
1553 183 229 1
1554 183 230 1
1555 183 232 1
1556 183 233 1
1557 183 234 1
1558 184 203 1
1559 184 212 1
1560 185 189 1
1561 185 190 1
1562 185 195 1
1563 185 196 1
1564 185 229 1
1565 185 230 1
1566 185 233 1
1567 185 234 1
1568 186 192 1
1569 186 226 1
1570 187 188 1
1571 187 197 1
1572 187 226 1
1573 187 227 1
1574 187 228 1
1575 187 231 1
1576 187 232 1
1577 187 236 1
1578 187 237 1
1579 188 189 1
1580 188 197 1
1581 188 198 1
1582 188 227 1
1583 188 228 1
1584 188 229 1
1585 188 231 1
1586 188 232 1
1587 188 233 1
1588 188 236 1
1589 188 237 1
1590 188 238 1
1591 189 190 1
1592 189 197 1
1593 189 198 1
1594 189 200 1
1595 189 228 1
1596 189 229 1
1597 189 230 1
1598 189 232 1
1599 189 233 1
1600 189 234 1
1601 189 237 1
1602 189 238 1
1603 189 239 1
1604 190 198 1
1605 190 200 1
1606 190 229 1
1607 190 230 1
1608 190 233 1
1609 190 234 1
1610 190 238 1
1611 190 239 1
1612 191 192 1
1613 191 225 1
1614 191 235 1
1615 192 225 1
1616 193 194 1
1617 193 226 1
1618 193 227 1
1619 193 228 1
1620 193 274 1
1621 193 275 1
1622 193 276 1
1623 193 282 1
1624 193 283 1
1625 193 284 1
1626 193 291 1
1627 193 292 1
1628 194 195 1
1629 194 227 1
1630 194 228 1
1631 194 229 1
1632 194 275 1
1633 194 276 1
1634 194 277 1
1635 194 283 1
1636 194 284 1
1637 194 285 1
1638 194 291 1
1639 194 292 1
1640 194 294 1
1641 195 196 1
1642 195 228 1
1643 195 229 1
1644 195 230 1
1645 195 276 1
1646 195 277 1
1647 195 279 1
1648 195 284 1
1649 195 285 1
1650 195 287 1
1651 195 292 1
1652 195 294 1
1653 195 296 1
1654 196 229 1
1655 196 230 1
1656 196 277 1
1657 196 279 1
1658 196 285 1
1659 196 287 1
1660 196 294 1
1661 196 296 1
1662 197 198 1
1663 197 205 1
1664 197 231 1
1665 197 232 1
1666 197 233 1
1667 197 236 1
1668 197 237 1
1669 197 238 1
1670 197 249 1
1671 197 250 1
1672 198 200 1
1673 198 205 1
1674 198 207 1
1675 198 232 1
1676 198 233 1
1677 198 234 1
1678 198 237 1
1679 198 238 1
1680 198 239 1
1681 198 249 1
1682 198 250 1
1683 199 201 1
1684 199 204 1
1685 199 206 1
1686 199 208 1
1687 199 244 1
1688 199 245 1
1689 199 246 1
1690 199 256 1
1691 199 257 1
1692 199 258 1
1693 199 264 1
1694 199 265 1
1695 199 266 1
1696 200 205 1
1697 200 207 1
1698 200 233 1
1699 200 234 1
1700 200 238 1
1701 200 239 1
1702 200 250 1
1703 201 202 1
1704 201 206 1
1705 201 208 1
1706 201 210 1
1707 201 245 1
1708 201 246 1
1709 201 247 1
1710 201 257 1
1711 201 258 1
1712 201 259 1
1713 201 265 1
1714 201 266 1
1715 201 267 1
1716 202 208 1
1717 202 210 1
1718 202 246 1
1719 202 247 1
1720 202 258 1
1721 202 259 1
1722 202 266 1
1723 202 267 1
1724 203 212 1
1725 203 240 1
1726 203 241 1
1727 203 248 1
1728 203 260 1
1729 203 261 1
1730 204 206 1
1731 204 216 1
1732 204 218 1
1733 204 220 1
1734 204 243 1
1735 204 244 1
1736 204 245 1
1737 204 264 1
1738 204 265 1
1739 204 274 1
1740 204 275 1
1741 204 276 1
1742 205 207 1
1743 205 237 1
1744 205 238 1
1745 205 239 1
1746 205 249 1
1747 205 250 1
1748 206 208 1
1749 206 218 1
1750 206 220 1
1751 206 222 1
1752 206 244 1
1753 206 245 1
1754 206 246 1
1755 206 264 1
1756 206 265 1
1757 206 266 1
1758 206 275 1
1759 206 276 1
1760 206 277 1
1761 207 238 1
1762 207 239 1
1763 207 250 1
1764 208 210 1
1765 208 220 1
1766 208 222 1
1767 208 224 1
1768 208 245 1
1769 208 246 1
1770 208 247 1
1771 208 265 1
1772 208 266 1
1773 208 267 1
1774 208 276 1
1775 208 277 1
1776 208 279 1
1777 209 211 1
1778 209 223 1
1779 209 251 1
1780 209 252 1
1781 209 260 1
1782 209 261 1
1783 210 222 1
1784 210 224 1
1785 210 246 1
1786 210 247 1
1787 210 266 1
1788 210 267 1
1789 210 277 1
1790 210 279 1
1791 211 213 1
1792 211 223 1
1793 211 251 1
1794 211 252 1
1795 211 253 1
1796 211 260 1
1797 211 261 1
1798 211 262 1
1799 212 240 1
1800 212 241 1
1801 212 248 1
1802 213 214 1
1803 213 252 1
1804 213 253 1
1805 213 254 1
1806 213 261 1
1807 213 262 1
1808 213 263 1
1809 214 253 1
1810 214 254 1
1811 214 255 1
1812 214 262 1
1813 214 263 1
1814 199 215 1
1815 215 217 1
1816 215 255 1
1817 215 256 1
1818 215 257 1
1819 215 264 1
1820 215 265 1
1821 193 216 1
1822 216 218 1
1823 216 242 1
1824 216 243 1
1825 216 244 1
1826 216 274 1
1827 216 275 1
1828 216 282 1
1829 216 283 1
1830 199 217 1
1831 201 217 1
1832 217 219 1
1833 217 256 1
1834 217 257 1
1835 217 258 1
1836 217 264 1
1837 217 265 1
1838 217 266 1
1839 193 218 1
1840 194 218 1
1841 218 220 1
1842 218 243 1
1843 218 244 1
1844 218 245 1
1845 218 274 1
1846 218 275 1
1847 218 276 1
1848 218 282 1
1849 218 283 1
1850 218 284 1
1851 199 219 1
1852 201 219 1
1853 202 219 1
1854 219 221 1
1855 219 257 1
1856 219 258 1
1857 219 259 1
1858 219 265 1
1859 219 266 1
1860 219 267 1
1861 193 220 1
1862 194 220 1
1863 195 220 1
1864 220 222 1
1865 220 244 1
1866 220 245 1
1867 220 246 1
1868 220 275 1
1869 220 276 1
1870 220 277 1
1871 220 283 1
1872 220 284 1
1873 220 285 1
1874 201 221 1
1875 202 221 1
1876 221 258 1
1877 221 259 1
1878 221 266 1
1879 221 267 1
1880 194 222 1
1881 195 222 1
1882 196 222 1
1883 222 224 1
1884 222 245 1
1885 222 246 1
1886 222 247 1
1887 222 276 1
1888 222 277 1
1889 222 279 1
1890 222 284 1
1891 222 285 1
1892 222 287 1
1893 203 223 1
1894 223 240 1
1895 223 241 1
1896 223 251 1
1897 223 252 1
1898 223 260 1
1899 223 261 1
1900 195 224 1
1901 196 224 1
1902 224 246 1
1903 224 247 1
1904 224 277 1
1905 224 279 1
1906 224 285 1
1907 224 287 1
1908 225 290 1
1909 226 227 1
1910 226 231 1
1911 226 282 1
1912 226 283 1
1913 226 291 1
1914 227 228 1
1915 227 231 1
1916 227 232 1
1917 227 278 1
1918 227 282 1
1919 227 283 1
1920 227 284 1
1921 227 291 1
1922 227 292 1
1923 228 229 1
1924 228 231 1
1925 228 232 1
1926 228 233 1
1927 228 278 1
1928 228 280 1
1929 228 283 1
1930 228 284 1
1931 228 285 1
1932 228 291 1
1933 228 292 1
1934 228 294 1
1935 229 230 1
1936 229 232 1
1937 229 233 1
1938 229 234 1
1939 229 278 1
1940 229 280 1
1941 229 281 1
1942 229 284 1
1943 229 285 1
1944 229 287 1
1945 229 292 1
1946 229 294 1
1947 229 296 1
1948 230 233 1
1949 230 234 1
1950 230 280 1
1951 230 281 1
1952 230 285 1
1953 230 287 1
1954 230 294 1
1955 230 296 1
1956 231 232 1
1957 231 236 1
1958 231 237 1
1959 231 278 1
1960 231 286 1
1961 231 291 1
1962 231 292 1
1963 232 233 1
1964 232 236 1
1965 232 237 1
1966 232 238 1
1967 232 278 1
1968 232 280 1
1969 232 286 1
1970 232 288 1
1971 232 291 1
1972 232 292 1
1973 232 294 1
1974 233 234 1
1975 233 237 1
1976 233 238 1
1977 233 239 1
1978 233 278 1
1979 233 280 1
1980 233 281 1
1981 233 286 1
1982 233 288 1
1983 233 289 1
1984 233 292 1
1985 233 294 1
1986 233 296 1
1987 234 238 1
1988 234 239 1
1989 234 280 1
1990 234 281 1
1991 234 288 1
1992 234 289 1
1993 234 294 1
1994 234 296 1
1995 225 235 1
1996 235 290 1
1997 236 237 1
1998 236 249 1
1999 236 278 1
2000 236 286 1
2001 236 293 1
2002 236 295 1
2003 237 238 1
2004 237 249 1
2005 237 250 1
2006 237 278 1
2007 237 280 1
2008 237 286 1
2009 237 288 1
2010 237 293 1
2011 237 295 1
2012 237 297 1
2013 238 239 1
2014 238 249 1
2015 238 250 1
2016 238 269 1
2017 238 278 1
2018 238 280 1
2019 238 281 1
2020 238 286 1
2021 238 288 1
2022 238 289 1
2023 238 295 1
2024 238 297 1
2025 239 250 1
2026 239 269 1
2027 239 280 1
2028 239 281 1
2029 239 288 1
2030 239 289 1
2031 239 297 1
2032 240 241 1
2033 240 248 1
2034 240 268 1
2035 240 298 1
2036 241 248 1
2037 241 268 1
2038 241 298 1
2039 241 299 1
2040 242 243 1
2041 242 274 1
2042 242 299 1
2043 242 300 1
2044 242 301 1
2045 242 321 1
2046 242 322 1
2047 242 333 1
2048 242 334 1
2049 243 244 1
2050 243 274 1
2051 243 275 1
2052 243 300 1
2053 243 301 1
2054 243 311 1
2055 243 321 1
2056 243 322 1
2057 243 323 1
2058 243 333 1
2059 243 334 1
2060 243 335 1
2061 244 245 1
2062 244 274 1
2063 244 275 1
2064 244 276 1
2065 244 301 1
2066 244 311 1
2067 244 313 1
2068 244 322 1
2069 244 323 1
2070 244 325 1
2071 244 334 1
2072 244 335 1
2073 244 336 1
2074 245 246 1
2075 245 275 1
2076 245 276 1
2077 245 277 1
2078 245 311 1
2079 245 313 1
2080 245 315 1
2081 245 323 1
2082 245 325 1
2083 245 327 1
2084 245 335 1
2085 245 336 1
2086 245 338 1
2087 246 247 1
2088 246 276 1
2089 246 277 1
2090 246 279 1
2091 246 309 1
2092 246 313 1
2093 246 315 1
2094 246 317 1
2095 246 325 1
2096 246 327 1
2097 246 329 1
2098 246 336 1
2099 246 338 1
2100 247 277 1
2101 247 279 1
2102 247 309 1
2103 247 315 1
2104 247 317 1
2105 247 327 1
2106 247 329 1
2107 247 338 1
2108 249 250 1
2109 249 286 1
2110 249 288 1
2111 249 293 1
2112 249 295 1
2113 249 297 1
2114 250 269 1
2115 250 286 1
2116 250 288 1
2117 250 289 1
2118 250 295 1
2119 250 297 1
2120 251 252 1
2121 251 260 1
2122 251 261 1
2123 251 268 1
2124 251 270 1
2125 251 298 1
2126 252 253 1
2127 252 260 1
2128 252 261 1
2129 252 262 1
2130 252 268 1
2131 252 270 1
2132 252 298 1
2133 252 299 1
2134 253 254 1
2135 253 261 1
2136 253 262 1
2137 253 263 1
2138 253 270 1
2139 253 298 1
2140 253 299 1
2141 253 300 1
2142 254 255 1
2143 254 262 1
2144 254 263 1
2145 254 299 1
2146 254 300 1
2147 254 301 1
2148 255 256 1
2149 255 263 1
2150 255 264 1
2151 255 300 1
2152 255 301 1
2153 255 311 1
2154 256 257 1
2155 256 264 1
2156 256 265 1
2157 256 271 1
2158 256 301 1
2159 256 311 1
2160 256 313 1
2161 257 258 1
2162 257 264 1
2163 257 265 1
2164 257 266 1
2165 257 271 1
2166 257 272 1
2167 257 311 1
2168 257 313 1
2169 257 315 1
2170 258 259 1
2171 258 265 1
2172 258 266 1
2173 258 267 1
2174 258 271 1
2175 258 272 1
2176 258 273 1
2177 258 313 1
2178 258 315 1
2179 258 317 1
2180 259 266 1
2181 259 267 1
2182 259 272 1
2183 259 273 1
2184 259 315 1
2185 259 317 1
2186 240 260 1
2187 241 260 1
2188 260 261 1
2189 260 268 1
2190 260 270 1
2191 260 298 1
2192 240 261 1
2193 241 261 1
2194 261 262 1
2195 261 268 1
2196 261 270 1
2197 261 298 1
2198 261 299 1
2199 241 262 1
2200 242 262 1
2201 262 263 1
2202 262 270 1
2203 262 298 1
2204 262 299 1
2205 262 300 1
2206 262 321 1
2207 242 263 1
2208 243 263 1
2209 263 299 1
2210 263 300 1
2211 263 301 1
2212 263 321 1
2213 263 322 1
2214 243 264 1
2215 244 264 1
2216 245 264 1
2217 264 265 1
2218 264 271 1
2219 264 301 1
2220 264 311 1
2221 264 313 1
2222 264 322 1
2223 264 323 1
2224 264 325 1
2225 244 265 1
2226 245 265 1
2227 246 265 1
2228 265 266 1
2229 265 271 1
2230 265 272 1
2231 265 311 1
2232 265 313 1
2233 265 315 1
2234 265 323 1
2235 265 325 1
2236 265 327 1
2237 245 266 1
2238 246 266 1
2239 247 266 1
2240 266 267 1
2241 266 271 1
2242 266 272 1
2243 266 273 1
2244 266 313 1
2245 266 315 1
2246 266 317 1
2247 266 325 1
2248 266 327 1
2249 266 329 1
2250 246 267 1
2251 247 267 1
2252 267 272 1
2253 267 273 1
2254 267 315 1
2255 267 317 1
2256 267 327 1
2257 267 329 1
2258 268 298 1
2259 269 302 1
2260 269 308 1
2261 269 349 1
2262 269 351 1
2263 268 270 1
2264 270 298 1
2265 270 299 1
2266 271 272 1
2267 271 311 1
2268 271 313 1
2269 271 315 1
2270 271 340 1
2271 271 355 1
2272 271 357 1
2273 271 360 1
2274 271 361 1
2275 272 273 1
2276 272 313 1
2277 272 315 1
2278 272 317 1
2279 272 340 1
2280 272 342 1
2281 272 355 1
2282 272 357 1
2283 272 358 1
2284 272 361 1
2285 273 315 1
2286 273 317 1
2287 273 340 1
2288 273 342 1
2289 273 357 1
2290 273 358 1
2291 274 275 1
2292 274 282 1
2293 274 283 1
2294 274 310 1
2295 274 312 1
2296 274 314 1
2297 274 321 1
2298 274 322 1
2299 274 323 1
2300 274 333 1
2301 274 334 1
2302 274 335 1
2303 275 276 1
2304 275 282 1
2305 275 283 1
2306 275 284 1
2307 275 312 1
2308 275 314 1
2309 275 316 1
2310 275 322 1
2311 275 323 1
2312 275 325 1
2313 275 334 1
2314 275 335 1
2315 275 336 1
2316 276 277 1
2317 276 283 1
2318 276 284 1
2319 276 285 1
2320 276 314 1
2321 276 316 1
2322 276 318 1
2323 276 323 1
2324 276 325 1
2325 276 327 1
2326 276 335 1
2327 276 336 1
2328 276 338 1
2329 277 279 1
2330 277 284 1
2331 277 285 1
2332 277 287 1
2333 277 309 1
2334 277 316 1
2335 277 318 1
2336 277 319 1
2337 277 325 1
2338 277 327 1
2339 277 329 1
2340 277 336 1
2341 277 338 1
2342 278 280 1
2343 278 286 1
2344 278 288 1
2345 278 303 1
2346 278 306 1
2347 278 307 1
2348 278 308 1
2349 278 326 1
2350 278 328 1
2351 278 330 1
2352 278 337 1
2353 278 339 1
2354 279 285 1
2355 279 287 1
2356 279 309 1
2357 279 318 1
2358 279 319 1
2359 279 327 1
2360 279 329 1
2361 279 338 1
2362 280 281 1
2363 280 286 1
2364 280 288 1
2365 280 289 1
2366 280 302 1
2367 280 303 1
2368 280 304 1
2369 280 307 1
2370 280 308 1
2371 280 328 1
2372 280 330 1
2373 280 331 1
2374 280 339 1
2375 281 288 1
2376 281 289 1
2377 281 302 1
2378 281 303 1
2379 281 304 1
2380 281 308 1
2381 281 330 1
2382 281 331 1
2383 282 283 1
2384 282 291 1
2385 282 310 1
2386 282 312 1
2387 282 314 1
2388 282 324 1
2389 282 326 1
2390 282 333 1
2391 282 334 1
2392 282 335 1
2393 283 284 1
2394 283 291 1
2395 283 292 1
2396 283 312 1
2397 283 314 1
2398 283 316 1
2399 283 324 1
2400 283 326 1
2401 283 328 1
2402 283 334 1
2403 283 335 1
2404 283 336 1
2405 284 285 1
2406 284 291 1
2407 284 292 1
2408 284 294 1
2409 284 314 1
2410 284 316 1
2411 284 318 1
2412 284 326 1
2413 284 328 1
2414 284 330 1
2415 284 335 1
2416 284 336 1
2417 284 338 1
2418 285 287 1
2419 285 292 1
2420 285 294 1
2421 285 296 1
2422 285 309 1
2423 285 316 1
2424 285 318 1
2425 285 319 1
2426 285 328 1
2427 285 330 1
2428 285 331 1
2429 285 336 1
2430 285 338 1
2431 286 288 1
2432 286 293 1
2433 286 295 1
2434 286 297 1
2435 286 303 1
2436 286 306 1
2437 286 307 1
2438 286 308 1
2439 286 337 1
2440 286 339 1
2441 286 345 1
2442 286 347 1
2443 286 349 1
2444 287 294 1
2445 287 296 1
2446 287 309 1
2447 287 318 1
2448 287 319 1
2449 287 330 1
2450 287 331 1
2451 287 338 1
2452 269 288 1
2453 288 289 1
2454 288 295 1
2455 288 297 1
2456 288 302 1
2457 288 303 1
2458 288 304 1
2459 288 307 1
2460 288 308 1
2461 288 339 1
2462 288 347 1
2463 288 349 1
2464 288 351 1
2465 269 289 1
2466 289 297 1
2467 289 302 1
2468 289 303 1
2469 289 304 1
2470 289 308 1
2471 289 349 1
2472 289 351 1
2473 290 305 1
2474 290 341 1
2475 290 343 1
2476 278 291 1
2477 291 292 1
2478 291 312 1
2479 291 314 1
2480 291 316 1
2481 291 324 1
2482 291 326 1
2483 291 328 1
2484 291 337 1
2485 291 339 1
2486 278 292 1
2487 280 292 1
2488 292 294 1
2489 292 303 1
2490 292 314 1
2491 292 316 1
2492 292 318 1
2493 292 326 1
2494 292 328 1
2495 292 330 1
2496 292 337 1
2497 292 339 1
2498 293 295 1
2499 293 306 1
2500 293 307 1
2501 293 345 1
2502 293 347 1
2503 278 294 1
2504 280 294 1
2505 281 294 1
2506 294 296 1
2507 294 303 1
2508 294 304 1
2509 294 316 1
2510 294 318 1
2511 294 319 1
2512 294 328 1
2513 294 330 1
2514 294 331 1
2515 294 339 1
2516 295 297 1
2517 295 306 1
2518 295 307 1
2519 295 308 1
2520 295 345 1
2521 295 347 1
2522 295 349 1
2523 280 296 1
2524 281 296 1
2525 296 303 1
2526 296 304 1
2527 296 318 1
2528 296 319 1
2529 296 330 1
2530 296 331 1
2531 269 297 1
2532 297 302 1
2533 297 307 1
2534 297 308 1
2535 297 347 1
2536 297 349 1
2537 297 351 1
2538 298 299 1
2539 299 300 1
2540 299 321 1
2541 299 344 1
2542 299 359 1
2543 300 301 1
2544 300 321 1
2545 300 322 1
2546 300 344 1
2547 300 346 1
2548 300 359 1
2549 301 311 1
2550 301 321 1
2551 301 322 1
2552 301 323 1
2553 301 344 1
2554 301 346 1
2555 301 348 1
2556 301 359 1
2557 301 360 1
2558 302 349 1
2559 302 351 1
2560 302 387 1
2561 302 388 1
2562 302 394 1
2563 302 396 1
2564 302 405 1
2565 302 407 1
2566 302 303 1
2567 303 304 1
2568 303 307 1
2569 303 308 1
2570 303 362 1
2571 303 370 1
2572 303 386 1
2573 303 393 1
2574 303 394 1
2575 303 396 1
2576 303 403 1
2577 303 405 1
2578 303 407 1
2579 302 304 1
2580 304 308 1
2581 304 362 1
2582 304 386 1
2583 304 394 1
2584 304 396 1
2585 304 405 1
2586 304 407 1
2587 305 341 1
2588 305 343 1
2589 305 389 1
2590 305 399 1
2591 305 409 1
2592 306 307 1
2593 306 345 1
2594 306 347 1
2595 306 385 1
2596 306 392 1
2597 306 393 1
2598 306 403 1
2599 306 413 1
2600 307 308 1
2601 307 345 1
2602 307 347 1
2603 307 349 1
2604 307 385 1
2605 307 387 1
2606 307 392 1
2607 307 393 1
2608 307 394 1
2609 307 403 1
2610 307 405 1
2611 307 413 1
2612 302 308 1
2613 308 347 1
2614 308 349 1
2615 308 351 1
2616 308 385 1
2617 308 387 1
2618 308 388 1
2619 308 393 1
2620 308 394 1
2621 308 396 1
2622 308 403 1
2623 308 405 1
2624 308 407 1
2625 309 318 1
2626 309 319 1
2627 309 352 1
2628 309 353 1
2629 309 364 1
2630 309 365 1
2631 309 372 1
2632 309 373 1
2633 310 312 1
2634 310 324 1
2635 310 354 1
2636 310 366 1
2637 310 367 1
2638 310 368 1
2639 310 374 1
2640 310 375 1
2641 311 313 1
2642 311 322 1
2643 311 323 1
2644 311 325 1
2645 311 346 1
2646 311 348 1
2647 311 350 1
2648 311 355 1
2649 311 360 1
2650 311 361 1
2651 312 314 1
2652 312 324 1
2653 312 326 1
2654 312 354 1
2655 312 356 1
2656 312 367 1
2657 312 368 1
2658 312 369 1
2659 312 374 1
2660 312 375 1
2661 312 376 1
2662 313 315 1
2663 313 323 1
2664 313 325 1
2665 313 327 1
2666 313 340 1
2667 313 348 1
2668 313 350 1
2669 313 352 1
2670 313 355 1
2671 313 357 1
2672 313 360 1
2673 313 361 1
2674 314 316 1
2675 314 324 1
2676 314 326 1
2677 314 328 1
2678 314 354 1
2679 314 356 1
2680 314 363 1
2681 314 368 1
2682 314 369 1
2683 314 370 1
2684 314 371 1
2685 314 375 1
2686 314 376 1
2687 315 317 1
2688 315 325 1
2689 315 327 1
2690 315 329 1
2691 315 340 1
2692 315 342 1
2693 315 350 1
2694 315 352 1
2695 315 353 1
2696 315 355 1
2697 315 357 1
2698 315 358 1
2699 315 361 1
2700 316 318 1
2701 316 326 1
2702 316 328 1
2703 316 330 1
2704 316 356 1
2705 316 362 1
2706 316 363 1
2707 316 364 1
2708 316 369 1
2709 316 370 1
2710 316 371 1
2711 316 372 1
2712 316 376 1
2713 317 327 1
2714 317 329 1
2715 317 340 1
2716 317 342 1
2717 317 352 1
2718 317 353 1
2719 317 357 1
2720 317 358 1
2721 318 319 1
2722 318 328 1
2723 318 330 1
2724 318 331 1
2725 318 362 1
2726 318 363 1
2727 318 364 1
2728 318 365 1
2729 318 370 1
2730 318 371 1
2731 318 372 1
2732 318 373 1
2733 318 386 1
2734 319 330 1
2735 319 331 1
2736 319 362 1
2737 319 364 1
2738 319 365 1
2739 319 372 1
2740 319 373 1
2741 319 386 1
2742 320 332 1
2743 320 389 1
2744 321 322 1
2745 321 333 1
2746 321 334 1
2747 321 344 1
2748 321 346 1
2749 321 354 1
2750 321 359 1
2751 322 323 1
2752 322 333 1
2753 322 334 1
2754 322 335 1
2755 322 344 1
2756 322 346 1
2757 322 348 1
2758 322 354 1
2759 322 356 1
2760 322 359 1
2761 322 360 1
2762 323 325 1
2763 323 334 1
2764 323 335 1
2765 323 336 1
2766 323 346 1
2767 323 348 1
2768 323 350 1
2769 323 354 1
2770 323 356 1
2771 323 360 1
2772 323 361 1
2773 323 371 1
2774 324 326 1
2775 324 337 1
2776 324 367 1
2777 324 368 1
2778 324 369 1
2779 324 374 1
2780 324 375 1
2781 324 376 1
2782 324 391 1
2783 324 392 1
2784 325 327 1
2785 325 335 1
2786 325 336 1
2787 325 338 1
2788 325 340 1
2789 325 348 1
2790 325 350 1
2791 325 352 1
2792 325 356 1
2793 325 360 1
2794 325 361 1
2795 325 371 1
2796 325 372 1
2797 326 328 1
2798 326 337 1
2799 326 339 1
2800 326 363 1
2801 326 368 1
2802 326 369 1
2803 326 370 1
2804 326 375 1
2805 326 376 1
2806 326 392 1
2807 326 393 1
2808 309 327 1
2809 327 329 1
2810 327 336 1
2811 327 338 1
2812 327 340 1
2813 327 342 1
2814 327 350 1
2815 327 352 1
2816 327 353 1
2817 327 361 1
2818 327 371 1
2819 327 372 1
2820 327 373 1
2821 303 328 1
2822 328 330 1
2823 328 337 1
2824 328 339 1
2825 328 362 1
2826 328 363 1
2827 328 364 1
2828 328 369 1
2829 328 370 1
2830 328 376 1
2831 328 392 1
2832 328 393 1
2833 328 394 1
2834 309 329 1
2835 329 338 1
2836 329 340 1
2837 329 342 1
2838 329 352 1
2839 329 353 1
2840 329 372 1
2841 329 373 1
2842 303 330 1
2843 304 330 1
2844 330 331 1
2845 330 339 1
2846 330 362 1
2847 330 363 1
2848 330 364 1
2849 330 365 1
2850 330 370 1
2851 330 386 1
2852 330 393 1
2853 330 394 1
2854 330 396 1
2855 303 331 1
2856 304 331 1
2857 331 362 1
2858 331 364 1
2859 331 365 1
2860 331 386 1
2861 331 394 1
2862 331 396 1
2863 305 332 1
2864 332 389 1
2865 332 399 1
2866 310 333 1
2867 312 333 1
2868 333 334 1
2869 333 344 1
2870 333 346 1
2871 333 354 1
2872 333 374 1
2873 333 375 1
2874 310 334 1
2875 312 334 1
2876 314 334 1
2877 334 335 1
2878 334 344 1
2879 334 346 1
2880 334 348 1
2881 334 354 1
2882 334 356 1
2883 334 374 1
2884 334 375 1
2885 334 376 1
2886 312 335 1
2887 314 335 1
2888 316 335 1
2889 335 336 1
2890 335 346 1
2891 335 348 1
2892 335 350 1
2893 335 354 1
2894 335 356 1
2895 335 363 1
2896 335 371 1
2897 335 375 1
2898 335 376 1
2899 314 336 1
2900 316 336 1
2901 318 336 1
2902 336 338 1
2903 336 348 1
2904 336 350 1
2905 336 352 1
2906 336 356 1
2907 336 363 1
2908 336 364 1
2909 336 371 1
2910 336 372 1
2911 336 376 1
2912 306 337 1
2913 307 337 1
2914 337 339 1
2915 337 368 1
2916 337 369 1
2917 337 370 1
2918 337 392 1
2919 337 393 1
2920 337 403 1
2921 309 338 1
2922 316 338 1
2923 318 338 1
2924 319 338 1
2925 338 350 1
2926 338 352 1
2927 338 353 1
2928 338 363 1
2929 338 364 1
2930 338 365 1
2931 338 371 1
2932 338 372 1
2933 338 373 1
2934 303 339 1
2935 306 339 1
2936 307 339 1
2937 308 339 1
2938 339 362 1
2939 339 369 1
2940 339 370 1
2941 339 392 1
2942 339 393 1
2943 339 394 1
2944 339 403 1
2945 339 405 1
2946 340 342 1
2947 340 350 1
2948 340 352 1
2949 340 353 1
2950 340 379 1
2951 340 380 1
2952 340 381 1
2953 340 395 1
2954 340 397 1
2955 340 398 1
2956 340 406 1
2957 340 408 1
2958 340 410 1
2959 341 343 1
2960 341 399 1
2961 341 409 1
2962 342 352 1
2963 342 353 1
2964 342 380 1
2965 342 381 1
2966 342 397 1
2967 342 398 1
2968 342 408 1
2969 342 410 1
2970 343 399 1
2971 343 401 1
2972 343 409 1
2973 343 411 1
2974 344 346 1
2975 344 354 1
2976 344 382 1
2977 344 383 1
2978 344 402 1
2979 344 412 1
2980 344 414 1
2981 345 347 1
2982 345 385 1
2983 345 403 1
2984 345 413 1
2985 346 348 1
2986 346 354 1
2987 346 356 1
2988 346 378 1
2989 346 382 1
2990 346 383 1
2991 346 384 1
2992 346 402 1
2993 346 404 1
2994 346 412 1
2995 346 414 1
2996 347 349 1
2997 347 385 1
2998 347 387 1
2999 347 403 1
3000 347 405 1
3001 347 413 1
3002 348 350 1
3003 348 354 1
3004 348 356 1
3005 348 371 1
3006 348 377 1
3007 348 378 1
3008 348 379 1
3009 348 383 1
3010 348 384 1
3011 348 402 1
3012 348 404 1
3013 348 406 1
3014 348 414 1
3015 349 351 1
3016 349 385 1
3017 349 387 1
3018 349 388 1
3019 349 403 1
3020 349 405 1
3021 349 407 1
3022 350 352 1
3023 350 356 1
3024 350 371 1
3025 350 372 1
3026 350 377 1
3027 350 378 1
3028 350 379 1
3029 350 380 1
3030 350 384 1
3031 350 404 1
3032 350 406 1
3033 350 408 1
3034 350 415 1
3035 351 387 1
3036 351 388 1
3037 351 405 1
3038 351 407 1
3039 352 353 1
3040 352 371 1
3041 352 372 1
3042 352 373 1
3043 352 377 1
3044 352 379 1
3045 352 380 1
3046 352 381 1
3047 352 406 1
3048 352 408 1
3049 352 410 1
3050 352 415 1
3051 352 416 1
3052 353 372 1
3053 353 373 1
3054 353 380 1
3055 353 381 1
3056 353 408 1
3057 353 410 1
3058 353 415 1
3059 353 416 1
3060 354 356 1
3061 354 374 1
3062 354 375 1
3063 354 376 1
3064 354 378 1
3065 354 382 1
3066 354 383 1
3067 354 384 1
3068 354 412 1
3069 354 414 1
3070 354 417 1
3071 354 418 1
3072 354 419 1
3073 340 355 1
3074 355 357 1
3075 355 360 1
3076 355 361 1
3077 355 395 1
3078 355 397 1
3079 355 404 1
3080 355 406 1
3081 355 408 1
3082 356 363 1
3083 356 371 1
3084 356 375 1
3085 356 376 1
3086 356 377 1
3087 356 378 1
3088 356 379 1
3089 356 383 1
3090 356 384 1
3091 356 414 1
3092 356 418 1
3093 356 419 1
3094 356 420 1
3095 340 357 1
3096 342 357 1
3097 357 358 1
3098 357 361 1
3099 357 395 1
3100 357 397 1
3101 357 398 1
3102 357 406 1
3103 357 408 1
3104 357 410 1
3105 340 358 1
3106 342 358 1
3107 358 397 1
3108 358 398 1
3109 358 408 1
3110 358 410 1
3111 344 359 1
3112 346 359 1
3113 359 402 1
3114 359 412 1
3115 359 414 1
3116 346 360 1
3117 348 360 1
3118 350 360 1
3119 360 361 1
3120 360 378 1
3121 360 379 1
3122 360 395 1
3123 360 402 1
3124 360 404 1
3125 360 406 1
3126 360 414 1
3127 340 361 1
3128 348 361 1
3129 350 361 1
3130 352 361 1
3131 361 378 1
3132 361 379 1
3133 361 380 1
3134 361 395 1
3135 361 397 1
3136 361 404 1
3137 361 406 1
3138 361 408 1
3139 362 386 1
3140 362 393 1
3141 362 394 1
3142 362 396 1
3143 362 420 1
3144 362 421 1
3145 362 422 1
3146 362 426 1
3147 362 428 1
3148 362 429 1
3149 362 430 1
3150 362 442 1
3151 362 444 1
3152 362 363 1
3153 363 364 1
3154 363 369 1
3155 363 370 1
3156 363 377 1
3157 363 384 1
3158 363 415 1
3159 363 419 1
3160 363 420 1
3161 363 421 1
3162 363 425 1
3163 363 426 1
3164 363 442 1
3165 362 364 1
3166 364 365 1
3167 364 370 1
3168 364 377 1
3169 364 386 1
3170 364 415 1
3171 364 416 1
3172 364 420 1
3173 364 421 1
3174 364 422 1
3175 364 426 1
3176 364 442 1
3177 364 444 1
3178 362 365 1
3179 365 386 1
3180 365 415 1
3181 365 416 1
3182 365 421 1
3183 365 422 1
3184 365 442 1
3185 365 444 1
3186 366 367 1
3187 366 389 1
3188 366 391 1
3189 366 417 1
3190 366 423 1
3191 366 447 1
3192 366 448 1
3193 367 368 1
3194 367 391 1
3195 367 417 1
3196 367 418 1
3197 367 423 1
3198 367 424 1
3199 367 447 1
3200 367 448 1
3201 367 449 1
3202 368 369 1
3203 368 391 1
3204 368 392 1
3205 368 417 1
3206 368 418 1
3207 368 419 1
3208 368 423 1
3209 368 424 1
3210 368 425 1
3211 368 427 1
3212 368 448 1
3213 368 449 1
3214 369 370 1
3215 369 392 1
3216 369 393 1
3217 369 418 1
3218 369 419 1
3219 369 420 1
3220 369 424 1
3221 369 425 1
3222 369 426 1
3223 369 427 1
3224 369 428 1
3225 369 449 1
3226 362 370 1
3227 370 392 1
3228 370 393 1
3229 370 394 1
3230 370 419 1
3231 370 420 1
3232 370 421 1
3233 370 425 1
3234 370 426 1
3235 370 427 1
3236 370 428 1
3237 370 429 1
3238 370 442 1
3239 363 371 1
3240 364 371 1
3241 371 372 1
3242 371 376 1
3243 371 377 1
3244 371 378 1
3245 371 379 1
3246 371 380 1
3247 371 384 1
3248 371 415 1
3249 371 419 1
3250 371 420 1
3251 371 421 1
3252 363 372 1
3253 364 372 1
3254 365 372 1
3255 372 373 1
3256 372 377 1
3257 372 379 1
3258 372 380 1
3259 372 381 1
3260 372 415 1
3261 372 416 1
3262 372 420 1
3263 372 421 1
3264 372 422 1
3265 364 373 1
3266 365 373 1
3267 373 380 1
3268 373 381 1
3269 373 415 1
3270 373 416 1
3271 373 421 1
3272 373 422 1
3273 366 374 1
3274 367 374 1
3275 368 374 1
3276 374 375 1
3277 374 382 1
3278 374 383 1
3279 374 417 1
3280 374 418 1
3281 374 423 1
3282 374 424 1
3283 367 375 1
3284 368 375 1
3285 369 375 1
3286 375 376 1
3287 375 382 1
3288 375 383 1
3289 375 384 1
3290 375 417 1
3291 375 418 1
3292 375 419 1
3293 375 423 1
3294 375 424 1
3295 375 425 1
3296 363 376 1
3297 368 376 1
3298 369 376 1
3299 370 376 1
3300 376 377 1
3301 376 383 1
3302 376 384 1
3303 376 418 1
3304 376 419 1
3305 376 420 1
3306 376 424 1
3307 376 425 1
3308 376 426 1
3309 377 415 1
3310 377 419 1
3311 377 420 1
3312 377 421 1
3313 377 378 1
3314 378 379 1
3315 378 383 1
3316 378 384 1
3317 377 379 1
3318 379 380 1
3319 379 384 1
3320 379 415 1
3321 377 380 1
3322 380 381 1
3323 380 415 1
3324 380 416 1
3325 381 415 1
3326 381 416 1
3327 382 383 1
3328 382 417 1
3329 382 418 1
3330 383 384 1
3331 383 417 1
3332 383 418 1
3333 383 419 1
3334 377 384 1
3335 384 418 1
3336 384 419 1
3337 384 420 1
3338 385 387 1
3339 385 434 1
3340 385 435 1
3341 385 436 1
3342 385 441 1
3343 385 443 1
3344 385 445 1
3345 386 394 1
3346 386 396 1
3347 386 421 1
3348 386 422 1
3349 386 429 1
3350 386 430 1
3351 386 442 1
3352 386 444 1
3353 387 388 1
3354 387 435 1
3355 387 436 1
3356 387 437 1
3357 387 443 1
3358 387 445 1
3359 387 446 1
3360 388 436 1
3361 388 437 1
3362 388 445 1
3363 388 446 1
3364 389 399 1
3365 389 401 1
3366 389 431 1
3367 389 432 1
3368 389 447 1
3369 390 400 1
3370 391 401 1
3371 391 423 1
3372 391 424 1
3373 391 432 1
3374 391 433 1
3375 391 447 1
3376 391 448 1
3377 391 449 1
3378 392 393 1
3379 392 403 1
3380 392 424 1
3381 392 425 1
3382 392 426 1
3383 392 427 1
3384 392 428 1
3385 392 434 1
3386 392 435 1
3387 392 449 1
3388 393 394 1
3389 393 403 1
3390 393 405 1
3391 393 425 1
3392 393 426 1
3393 393 427 1
3394 393 428 1
3395 393 429 1
3396 393 434 1
3397 393 435 1
3398 393 436 1
3399 393 442 1
3400 394 396 1
3401 394 403 1
3402 394 405 1
3403 394 407 1
3404 394 426 1
3405 394 428 1
3406 394 429 1
3407 394 430 1
3408 394 435 1
3409 394 436 1
3410 394 437 1
3411 394 442 1
3412 394 444 1
3413 395 397 1
3414 395 404 1
3415 395 406 1
3416 395 408 1
3417 396 405 1
3418 396 407 1
3419 396 429 1
3420 396 430 1
3421 396 436 1
3422 396 437 1
3423 396 442 1
3424 396 444 1
3425 397 398 1
3426 397 406 1
3427 397 408 1
3428 397 410 1
3429 398 408 1
3430 398 410 1
3431 399 401 1
3432 399 409 1
3433 399 411 1
3434 399 431 1
3435 399 432 1
3436 399 438 1
3437 399 439 1
3438 399 447 1
3439 401 411 1
3440 401 431 1
3441 401 432 1
3442 401 433 1
3443 401 439 1
3444 401 440 1
3445 401 447 1
3446 401 448 1
3447 378 402 1
3448 402 404 1
3449 402 412 1
3450 402 414 1
3451 385 403 1
3452 387 403 1
3453 403 405 1
3454 403 413 1
3455 403 427 1
3456 403 428 1
3457 403 429 1
3458 403 434 1
3459 403 435 1
3460 403 436 1
3461 403 441 1
3462 403 443 1
3463 403 445 1
3464 378 404 1
3465 379 404 1
3466 404 406 1
3467 404 414 1
3468 385 405 1
3469 387 405 1
3470 388 405 1
3471 405 407 1
3472 405 428 1
3473 405 429 1
3474 405 430 1
3475 405 435 1
3476 405 436 1
3477 405 437 1
3478 405 443 1
3479 405 445 1
3480 405 446 1
3481 378 406 1
3482 379 406 1
3483 380 406 1
3484 406 408 1
3485 387 407 1
3486 388 407 1
3487 407 429 1
3488 407 430 1
3489 407 436 1
3490 407 437 1
3491 407 445 1
3492 407 446 1
3493 379 408 1
3494 380 408 1
3495 381 408 1
3496 408 410 1
3497 409 431 1
3498 409 438 1
3499 380 410 1
3500 381 410 1
3501 411 431 1
3502 411 432 1
3503 411 433 1
3504 411 439 1
3505 411 440 1
3506 382 412 1
3507 383 412 1
3508 412 414 1
3509 385 413 1
3510 413 434 1
3511 413 435 1
3512 413 441 1
3513 413 443 1
3514 378 414 1
3515 382 414 1
3516 383 414 1
3517 384 414 1
3518 415 416 1
3519 415 420 1
3520 415 421 1
3521 415 422 1
3522 416 421 1
3523 416 422 1
3524 417 418 1
3525 417 423 1
3526 417 424 1
3527 418 419 1
3528 418 423 1
3529 418 424 1
3530 418 425 1
3531 419 420 1
3532 419 424 1
3533 419 425 1
3534 419 426 1
3535 420 421 1
3536 420 425 1
3537 420 426 1
3538 420 442 1
3539 421 422 1
3540 421 426 1
3541 421 442 1
3542 421 444 1
3543 422 442 1
3544 422 444 1
3545 423 424 1
3546 423 447 1
3547 423 448 1
3548 423 449 1
3549 424 425 1
3550 424 427 1
3551 424 448 1
3552 424 449 1
3553 425 426 1
3554 425 427 1
3555 425 428 1
3556 425 449 1
3557 426 427 1
3558 426 428 1
3559 426 429 1
3560 426 442 1
3561 427 428 1
3562 427 434 1
3563 427 435 1
3564 428 429 1
3565 428 434 1
3566 428 435 1
3567 428 436 1
3568 429 430 1
3569 429 435 1
3570 429 436 1
3571 429 437 1
3572 430 436 1
3573 430 437 1
3574 431 432 1
3575 431 438 1
3576 431 439 1
3577 432 433 1
3578 432 439 1
3579 432 440 1
3580 433 439 1
3581 433 440 1
3582 434 435 1
3583 434 441 1
3584 434 443 1
3585 435 436 1
3586 435 441 1
3587 435 443 1
3588 435 445 1
3589 436 437 1
3590 436 443 1
3591 436 445 1
3592 436 446 1
3593 437 445 1
3594 437 446 1
3595 439 440 1
3596 441 443 1
3597 428 442 1
3598 429 442 1
3599 430 442 1
3600 442 444 1
3601 443 445 1
3602 429 444 1
3603 430 444 1
3604 445 446 1
3605 431 447 1
3606 432 447 1
3607 433 447 1
3608 447 448 1
3609 432 448 1
3610 433 448 1
3611 448 449 1
3612 427 449 1
3613 433 449 1
3614 434 449 1
@<TRIPOS>SUBSTRUCTURE
1	HIS1	1	RESIDUE	1 A	HIS
2	HIS2	64	RESIDUE	1 A	HIS
3	HIS3	129	RESIDUE	1 A	HIS
4	HIS4	186	RESIDUE	1 A	HIS
5	HIS5	240	RESIDUE	1 A	HIS
6	HIS6	302	RESIDUE	1 A	HIS
7	HIS7	362	RESIDUE	1 A	HIS
8	HIS8	427	RESIDUE	1 A	HIS
