7l1u_lig
 OpenBabel01282514473D

 77 81  0  0  0  0  0  0  0  0999 V2000
    4.6161   -2.4314   -5.1336 C   0  0  0  0  0  0  0  0  0  0  0  0
    3.5113   -2.0538   -4.3109 O   0  0  0  0  0  0  0  0  0  0  0  0
    3.8154   -1.5192   -3.0889 C   0  0  0  0  0  0  0  0  0  0  0  0
    2.8755   -0.6979   -2.4566 C   0  0  0  0  0  0  0  0  0  0  0  0
    3.1590   -0.1407   -1.1949 C   0  0  0  0  0  0  0  0  0  0  0  0
    4.3684   -0.3969   -0.5240 C   0  0  0  0  0  0  0  0  0  0  0  0
    5.2738   -1.2532   -1.1564 C   0  0  0  0  0  0  0  0  0  0  0  0
    5.0080   -1.8031   -2.4154 C   0  0  0  0  0  0  0  0  0  0  0  0
    4.6560    0.1846    0.8091 C   0  0  0  0  0  0  0  0  0  0  0  0
    5.9773    0.4950    1.2047 C   0  0  0  0  0  0  0  0  0  0  0  0
    6.2702    0.9385    2.4998 C   0  0  0  0  0  0  0  0  0  0  0  0
    5.2070    1.1955    3.3785 C   0  0  0  0  0  0  0  0  0  0  0  0
    3.8909    0.9616    2.9932 C   0  0  0  0  0  0  0  0  0  0  0  0
    3.6238    0.4363    1.7307 C   0  0  0  0  0  0  0  0  0  0  0  0
    7.6416    1.2564    2.9937 C   0  0  0  0  0  0  0  0  0  0  0  0
    7.7156    2.2128    3.7734 O   0  0  0  0  0  0  0  0  0  0  0  0
    8.7764    0.5135    2.6499 N   0  0  0  0  0  0  0  0  0  0  0  0
    8.8626   -0.6382    1.7634 C   0  0  0  0  0  0  0  0  0  0  0  0
   10.0517    0.9387    3.2148 C   0  0  0  0  0  0  0  0  0  0  0  0
    1.3270   -0.3005   -3.2622 S   0  0  0  0  0  0  0  0  0  0  0  0
    1.6469    0.4954   -4.4294 O   0  0  0  0  0  0  0  0  0  0  0  0
    0.5284   -1.5051   -3.3150 O   0  0  0  0  0  0  0  0  0  0  0  0
    0.5894    0.7879   -2.1567 N   0  0  0  0  0  0  0  0  0  0  0  0
   -0.7575    1.1856   -2.4597 C   0  0  0  0  0  0  0  0  0  0  0  0
   -0.9788    2.4367   -3.0405 C   0  0  0  0  0  0  0  0  0  0  0  0
   -2.2824    2.8811   -3.2545 C   0  0  0  0  0  0  0  0  0  0  0  0
   -3.3683    2.0788   -2.8983 C   0  0  0  0  0  0  0  0  0  0  0  0
   -3.1680    0.8123   -2.3352 C   0  0  0  0  0  0  0  0  0  0  0  0
   -4.3022   -0.0962   -1.9073 C   0  0  0  0  0  0  0  0  0  0  0  0
   -5.7367    0.3720   -2.1987 C   0  0  0  0  0  0  0  0  0  0  0  0
   -6.7070   -0.6129   -1.7477 N   0  0  0  0  0  0  0  0  0  0  0  0
   -7.2768   -0.5469   -0.4884 C   0  0  0  0  0  0  0  0  0  0  0  0
   -7.2385    0.4450    0.2267 O   0  0  0  0  0  0  0  0  0  0  0  0
   -8.0100   -1.7727   -0.0598 C   0  0  0  0  0  0  0  0  0  0  0  0
   -8.9097   -2.3384   -0.9849 C   0  0  0  0  0  0  0  0  0  0  0  0
   -9.6904   -3.4456   -0.6448 C   0  0  0  0  0  0  0  0  0  0  0  0
   -9.6008   -3.9927    0.6301 C   0  0  0  0  0  0  0  0  0  0  0  0
   -8.7553   -3.4132    1.5758 C   0  0  0  0  0  0  0  0  0  0  0  0
   -7.9512   -2.3040    1.2401 C   0  0  0  0  0  0  0  0  0  0  0  0
   -7.1214   -1.7676    2.2552 N   0  0  0  0  0  0  0  0  0  0  0  0
   -7.4535   -1.8994    3.5765 N   0  0  0  0  0  0  0  0  0  0  0  0
   -6.5273   -1.1437    4.1691 C   0  0  0  0  0  0  0  0  0  0  0  0
   -5.5870   -0.7252    3.2260 C   0  0  0  0  0  0  0  0  0  0  0  0
   -5.9122   -1.1955    2.0198 N   0  0  0  0  0  0  0  0  0  0  0  0
   -1.8439    0.3717   -2.1268 C   0  0  0  0  0  0  0  0  0  0  0  0
    4.2223   -2.8311   -6.0725 H   0  0  0  0  0  0  0  0  0  0  0  0
    5.2171   -3.2280   -4.6828 H   0  0  0  0  0  0  0  0  0  0  0  0
    5.2371   -1.5595   -5.3670 H   0  0  0  0  0  0  0  0  0  0  0  0
    2.4323    0.5047   -0.7150 H   0  0  0  0  0  0  0  0  0  0  0  0
    6.2042   -1.5371   -0.6676 H   0  0  0  0  0  0  0  0  0  0  0  0
    5.7526   -2.4789   -2.8228 H   0  0  0  0  0  0  0  0  0  0  0  0
    6.7819    0.4085    0.4811 H   0  0  0  0  0  0  0  0  0  0  0  0
    5.4040    1.5947    4.3728 H   0  0  0  0  0  0  0  0  0  0  0  0
    3.0740    1.1802    3.6761 H   0  0  0  0  0  0  0  0  0  0  0  0
    2.5852    0.2239    1.4837 H   0  0  0  0  0  0  0  0  0  0  0  0
    7.9011   -1.1120    1.5798 H   0  0  0  0  0  0  0  0  0  0  0  0
    9.5192   -1.3905    2.2130 H   0  0  0  0  0  0  0  0  0  0  0  0
    9.3072   -0.3082    0.8181 H   0  0  0  0  0  0  0  0  0  0  0  0
    9.9471    1.7519    3.9372 H   0  0  0  0  0  0  0  0  0  0  0  0
   10.7036    1.2703    2.4019 H   0  0  0  0  0  0  0  0  0  0  0  0
   10.5131    0.0883    3.7277 H   0  0  0  0  0  0  0  0  0  0  0  0
    1.1865    1.6150   -2.1228 H   0  0  0  0  0  0  0  0  0  0  0  0
   -0.1488    3.0832   -3.3161 H   0  0  0  0  0  0  0  0  0  0  0  0
   -2.4529    3.8649   -3.6877 H   0  0  0  0  0  0  0  0  0  0  0  0
   -4.3684    2.4735   -3.0676 H   0  0  0  0  0  0  0  0  0  0  0  0
   -4.2047   -0.2754   -0.8284 H   0  0  0  0  0  0  0  0  0  0  0  0
   -4.1564   -1.0661   -2.4022 H   0  0  0  0  0  0  0  0  0  0  0  0
   -5.8904    0.4992   -3.2763 H   0  0  0  0  0  0  0  0  0  0  0  0
   -5.9398    1.3301   -1.7082 H   0  0  0  0  0  0  0  0  0  0  0  0
   -6.7865   -1.4660   -2.2844 H   0  0  0  0  0  0  0  0  0  0  0  0
   -9.0435   -1.8918   -1.9682 H   0  0  0  0  0  0  0  0  0  0  0  0
  -10.3825   -3.8682   -1.3694 H   0  0  0  0  0  0  0  0  0  0  0  0
  -10.1978   -4.8619    0.8966 H   0  0  0  0  0  0  0  0  0  0  0  0
   -8.7051   -3.8552    2.5710 H   0  0  0  0  0  0  0  0  0  0  0  0
   -6.5791   -0.9547    5.2323 H   0  0  0  0  0  0  0  0  0  0  0  0
   -4.6986   -0.1237    3.3540 H   0  0  0  0  0  0  0  0  0  0  0  0
   -1.6640   -0.6016   -1.6758 H   0  0  0  0  0  0  0  0  0  0  0  0
  1  2  1  0  0  0  0
  1 46  1  0  0  0  0
  1 47  1  0  0  0  0
  1 48  1  0  0  0  0
  2  3  1  0  0  0  0
  3  4  2  0  0  0  0
  3  8  1  0  0  0  0
  4  5  1  0  0  0  0
  4 20  1  0  0  0  0
  5  6  2  0  0  0  0
  5 49  1  0  0  0  0
  6  7  1  0  0  0  0
  6  9  1  0  0  0  0
  7  8  2  0  0  0  0
  7 50  1  0  0  0  0
  8 51  1  0  0  0  0
  9 10  2  0  0  0  0
  9 14  1  0  0  0  0
 10 11  1  0  0  0  0
 10 52  1  0  0  0  0
 11 12  2  0  0  0  0
 11 15  1  0  0  0  0
 12 13  1  0  0  0  0
 12 53  1  0  0  0  0
 13 14  2  0  0  0  0
 13 54  1  0  0  0  0
 14 55  1  0  0  0  0
 15 16  2  0  0  0  0
 15 17  1  0  0  0  0
 17 18  1  0  0  0  0
 17 19  1  0  0  0  0
 18 56  1  0  0  0  0
 18 57  1  0  0  0  0
 18 58  1  0  0  0  0
 19 59  1  0  0  0  0
 19 60  1  0  0  0  0
 19 61  1  0  0  0  0
 20 21  2  0  0  0  0
 20 22  2  0  0  0  0
 20 23  1  0  0  0  0
 23 24  1  0  0  0  0
 23 62  1  0  0  0  0
 24 25  2  0  0  0  0
 24 45  1  0  0  0  0
 25 26  1  0  0  0  0
 25 63  1  0  0  0  0
 26 27  2  0  0  0  0
 26 64  1  0  0  0  0
 27 28  1  0  0  0  0
 27 65  1  0  0  0  0
 28 29  1  0  0  0  0
 28 45  2  0  0  0  0
 29 30  1  0  0  0  0
 29 66  1  0  0  0  0
 29 67  1  0  0  0  0
 30 31  1  0  0  0  0
 30 68  1  0  0  0  0
 30 69  1  0  0  0  0
 31 32  1  0  0  0  0
 31 70  1  0  0  0  0
 32 33  2  0  0  0  0
 32 34  1  0  0  0  0
 34 35  2  0  0  0  0
 34 39  1  0  0  0  0
 35 36  1  0  0  0  0
 35 71  1  0  0  0  0
 36 37  2  0  0  0  0
 36 72  1  0  0  0  0
 37 38  1  0  0  0  0
 37 73  1  0  0  0  0
 38 39  2  0  0  0  0
 38 74  1  0  0  0  0
 39 40  1  0  0  0  0
 40 41  1  0  0  0  0
 40 44  1  0  0  0  0
 41 42  2  0  0  0  0
 42 43  1  0  0  0  0
 42 75  1  0  0  0  0
 43 44  2  0  0  0  0
 43 76  1  0  0  0  0
 45 77  1  0  0  0  0
M  END
$$$$
