tak925
 OpenBabel01282514502D

 29 31  0  0  1  0  0  0  0  0999 V2000
   -1.5981    5.5000    0.0000 C   0  0  0  0  0  0  0  0  0  0  0  0
   -1.5981    4.5000    0.0000 O   0  0  0  0  0  0  0  0  0  0  0  0
   -0.7321    4.0000    0.0000 C   0  0  0  0  0  0  0  0  0  0  0  0
    0.1340    4.5000    0.0000 O   0  0  0  0  0  0  0  0  0  0  0  0
   -0.7321    3.0000    0.0000 N   0  0  0  0  0  0  0  0  0  0  0  0
   -1.5981    2.5000    0.0000 C   0  0  0  0  0  0  0  0  0  0  0  0
   -1.5981    1.5000    0.0000 C   0  0  0  0  0  0  0  0  0  0  0  0
   -0.7321    1.0000    0.0000 C   0  0  0  0  0  0  0  0  0  0  0  0
    0.1340    1.5000    0.0000 C   0  0  3  0  0  0  0  0  0  0  0  0
    1.0000    1.0000    0.0000 C   0  0  0  0  0  0  0  0  0  0  0  0
    1.0000   -0.0000    0.0000 S   0  0  0  0  0  0  0  0  0  0  0  0
    2.0000   -0.0000    0.0000 C   0  0  0  0  0  0  0  0  0  0  0  0
    1.0000   -1.0000    0.0000 O   0  0  0  0  0  0  0  0  0  0  0  0
    0.0000   -0.0000    0.0000 O   0  0  0  0  0  0  0  0  0  0  0  0
    0.1340    2.5000    0.0000 C   0  0  3  0  0  0  0  0  0  0  0  0
    1.0000    3.0000    0.0000 C   0  0  0  0  0  0  0  0  0  0  0  0
    1.8660    2.5000    0.0000 O   0  0  0  0  0  0  0  0  0  0  0  0
    2.7321    3.0000    0.0000 C   0  0  3  0  0  0  0  0  0  0  0  0
    2.7321    4.0000    0.0000 C   0  0  0  0  0  0  0  0  0  0  0  0
    3.5981    4.5000    0.0000 C   0  0  0  0  0  0  0  0  0  0  0  0
    4.4641    4.0000    0.0000 C   0  0  3  0  0  0  0  0  0  0  0  0
    4.4641    3.0000    0.0000 C   0  0  0  0  0  0  0  0  0  0  0  0
    3.5981    2.5000    0.0000 C   0  0  0  0  0  0  0  0  0  0  0  0
    5.3301    4.5000    0.0000 C   0  0  0  0  0  0  0  0  0  0  0  0
    5.3301    5.5000    0.0000 C   0  0  0  0  0  0  0  0  0  0  0  0
    6.1962    6.0000    0.0000 C   0  0  0  0  0  0  0  0  0  0  0  0
    7.0622    5.5000    0.0000 C   0  0  0  0  0  0  0  0  0  0  0  0
    7.0622    4.5000    0.0000 C   0  0  0  0  0  0  0  0  0  0  0  0
    6.1962    4.0000    0.0000 C   0  0  0  0  0  0  0  0  0  0  0  0
  1  2  1  0  0  0  0
  2  3  1  0  0  0  0
  3  4  2  0  0  0  0
  3  5  1  0  0  0  0
  5 15  1  0  0  0  0
  5  6  1  0  0  0  0
  6  7  1  0  0  0  0
  7  8  1  0  0  0  0
  8  9  1  0  0  0  0
  9 10  1  0  0  0  0
  9 15  1  0  0  0  0
 10 11  1  0  0  0  0
 11 12  1  0  0  0  0
 11 13  2  0  0  0  0
 11 14  2  0  0  0  0
 15 16  1  0  0  0  0
 16 17  1  0  0  0  0
 17 18  1  0  0  0  0
 18 23  1  0  0  0  0
 18 19  1  0  0  0  0
 19 20  1  0  0  0  0
 20 21  1  0  0  0  0
 21 22  1  0  0  0  0
 21 24  1  0  0  0  0
 22 23  1  0  0  0  0
 24 29  1  0  0  0  0
 24 25  2  0  0  0  0
 25 26  1  0  0  0  0
 26 27  2  0  0  0  0
 27 28  1  0  0  0  0
 28 29  2  0  0  0  0
M  END
$$$$
