PV-005718134777
 OpenBabel10092411533D

 55 57  0  0  1  0  0  0  0  0999 V2000
  126.5030  125.8080  159.6160 N   0  0  0  0  0  0  0  0  0  0  0  0
  127.9290  126.0410  159.3980 C   0  0  0  0  0  0  0  0  0  0  0  0
  127.6140  127.5170  159.4830 C   0  0  2  0  0  0  0  0  0  0  0  0
  127.1680  128.1740  158.1880 C   0  0  0  0  0  0  0  0  0  0  0  0
  127.8670  127.9140  157.0130 C   0  0  0  0  0  0  0  0  0  0  0  0
  127.4560  128.5200  155.8310 C   0  0  0  0  0  0  0  0  0  0  0  0
  126.3580  129.3730  155.8320 C   0  0  0  0  0  0  0  0  0  0  0  0
  125.9150  130.0290  154.5330 C   0  0  0  0  0  0  0  0  0  0  0  0
  124.5080  129.5700  154.1870 C   0  0  0  0  0  0  0  0  0  0  0  0
  125.9290  131.5400  154.6990 C   0  0  0  0  0  0  0  0  0  0  0  0
  125.6650  129.6280  157.0120 C   0  0  0  0  0  0  0  0  0  0  0  0
  126.0690  129.0260  158.1990 C   0  0  0  0  0  0  0  0  0  0  0  0
  128.6350  128.2490  160.1490 O   0  0  0  0  0  0  0  0  0  0  0  0
  126.5080  127.0350  160.4040 C   0  0  0  0  0  0  0  0  0  0  0  0
  126.2230  124.4050  160.6380 S   0  0  0  0  0  0  0  0  0  0  0  0
  127.4470  123.6600  160.7780 O   0  0  0  0  0  0  0  0  0  0  0  0
  125.7740  124.8390  161.9370 O   0  0  0  0  0  0  0  0  0  0  0  0
  124.9580  123.3520  159.8840 C   0  0  0  0  0  0  0  0  0  0  0  0
  124.5450  122.2710  160.8700 C   0  0  1  0  0  0  0  0  0  0  0  0
  124.5650  122.8020  162.2980 C   0  0  0  0  0  0  0  0  0  0  0  0
  124.0470  121.8470  163.2200 O   0  0  0  0  0  0  0  0  0  0  0  0
  122.7560  121.3430  162.8810 C   0  0  0  0  0  0  0  0  0  0  0  0
  122.3290  120.2670  163.8660 C   0  0  0  0  0  0  0  0  0  0  0  0
  121.6870  122.4250  162.9550 C   0  0  0  0  0  0  0  0  0  0  0  0
  122.8400  120.7620  161.4760 C   0  0  0  0  0  0  0  0  0  0  0  0
  123.2820  121.7180  160.5200 O   0  0  0  0  0  0  0  0  0  0  0  0
  128.2730  125.7360  158.5100 H   0  0  0  0  0  0  0  0  0  0  0  0
  128.5260  125.6970  160.1230 H   0  0  0  0  0  0  0  0  0  0  0  0
  128.6560  127.2990  157.0190 H   0  0  0  0  0  0  0  0  0  0  0  0
  127.9500  128.3420  154.9790 H   0  0  0  0  0  0  0  0  0  0  0  0
  126.5410  129.7680  153.7980 H   0  0  0  0  0  0  0  0  0  0  0  0
  124.2170  130.0010  153.3330 H   0  0  0  0  0  0  0  0  0  0  0  0
  124.4990  128.5760  154.0780 H   0  0  0  0  0  0  0  0  0  0  0  0
  123.8820  129.8300  154.9220 H   0  0  0  0  0  0  0  0  0  0  0  0
  125.6380  131.9710  153.8450 H   0  0  0  0  0  0  0  0  0  0  0  0
  125.3030  131.8000  155.4340 H   0  0  0  0  0  0  0  0  0  0  0  0
  126.8550  131.8420  154.9260 H   0  0  0  0  0  0  0  0  0  0  0  0
  124.8770  130.2440  157.0060 H   0  0  0  0  0  0  0  0  0  0  0  0
  125.5750  129.2040  159.0510 H   0  0  0  0  0  0  0  0  0  0  0  0
  128.8870  127.7770  160.9930 H   0  0  0  0  0  0  0  0  0  0  0  0
  126.7780  126.9190  161.3600 H   0  0  0  0  0  0  0  0  0  0  0  0
  125.6620  127.5670  160.3580 H   0  0  0  0  0  0  0  0  0  0  0  0
  125.3280  122.9260  159.0580 H   0  0  0  0  0  0  0  0  0  0  0  0
  124.1610  123.9070  159.6450 H   0  0  0  0  0  0  0  0  0  0  0  0
  125.2210  121.5370  160.8130 H   0  0  0  0  0  0  0  0  0  0  0  0
  125.5080  123.0190  162.5500 H   0  0  0  0  0  0  0  0  0  0  0  0
  124.0080  123.6320  162.3430 H   0  0  0  0  0  0  0  0  0  0  0  0
  121.4230  119.9250  163.6130 H   0  0  0  0  0  0  0  0  0  0  0  0
  122.9870  119.5150  163.8440 H   0  0  0  0  0  0  0  0  0  0  0  0
  122.2940  120.6530  164.7880 H   0  0  0  0  0  0  0  0  0  0  0  0
  120.8000  122.0340  162.7110 H   0  0  0  0  0  0  0  0  0  0  0  0
  121.6460  122.7910  163.8850 H   0  0  0  0  0  0  0  0  0  0  0  0
  121.9130  123.1610  162.3170 H   0  0  0  0  0  0  0  0  0  0  0  0
  123.4810  119.9940  161.4830 H   0  0  0  0  0  0  0  0  0  0  0  0
  121.9330  120.4360  161.2080 H   0  0  0  0  0  0  0  0  0  0  0  0
  1 14  1  0  0  0  0
  1 15  1  0  0  0  0
  2  3  1  0  0  0  0
  2  1  1  0  0  0  0
  2 28  1  0  0  0  0
  3 13  1  1  0  0  0
  3 14  1  0  0  0  0
  4 12  1  0  0  0  0
  4  3  1  0  0  0  0
  5 29  1  0  0  0  0
  5  4  2  0  0  0  0
  6  7  2  0  0  0  0
  6  5  1  0  0  0  0
  7 11  1  0  0  0  0
  8 10  1  0  0  0  0
  8  7  1  0  0  0  0
  9  8  1  0  0  0  0
  9 34  1  0  0  0  0
 10 37  1  0  0  0  0
 10 36  1  0  0  0  0
 11 12  2  0  0  0  0
 12 39  1  0  0  0  0
 13 40  1  0  0  0  0
 14 41  1  0  0  0  0
 15 16  2  0  0  0  0
 15 17  2  0  0  0  0
 18 15  1  0  0  0  0
 18 19  1  0  0  0  0
 19 45  1  6  0  0  0
 19 20  1  0  0  0  0
 20 47  1  0  0  0  0
 20 46  1  0  0  0  0
 20 21  1  0  0  0  0
 22 24  1  0  0  0  0
 22 21  1  0  0  0  0
 22 23  1  0  0  0  0
 23 50  1  0  0  0  0
 24 52  1  0  0  0  0
 25 54  1  0  0  0  0
 25 22  1  0  0  0  0
 26 19  1  0  0  0  0
 26 25  1  0  0  0  0
 27  2  1  0  0  0  0
 30  6  1  0  0  0  0
 31  8  1  0  0  0  0
 32  9  1  0  0  0  0
 33  9  1  0  0  0  0
 35 10  1  0  0  0  0
 38 11  1  0  0  0  0
 42 14  1  0  0  0  0
 43 18  1  0  0  0  0
 44 18  1  0  0  0  0
 48 23  1  0  0  0  0
 49 23  1  0  0  0  0
 51 24  1  0  0  0  0
 53 24  1  0  0  0  0
 55 25  1  0  0  0  0
M  END
$$$$
PV-006627891221
 OpenBabel10092411533D

 52 55  0  0  1  0  0  0  0  0999 V2000
  125.8630  125.1910  160.1900 C   0  0  2  0  0  0  0  0  0  0  0  0
  124.9730  125.0340  161.4050 C   0  0  0  0  0  0  0  0  0  0  0  0
  125.1070  126.2920  162.1490 N   0  0  0  0  0  0  0  0  0  0  0  0
  126.0470  127.1500  161.4270 C   0  0  0  0  0  0  0  0  0  0  0  0
  126.9120  126.1550  160.6910 C   0  0  1  0  0  0  0  0  0  0  0  0
  127.8490  125.5230  161.5530 O   0  0  0  0  0  0  0  0  0  0  0  0
  128.8150  126.4060  162.1030 C   0  0  0  0  0  0  0  0  0  0  0  0
  124.4440  126.6100  163.3420 C   0  0  0  0  0  0  0  0  0  0  0  0
  125.0490  127.1130  164.2480 O   0  0  0  0  0  0  0  0  0  0  0  0
  123.0290  126.3330  163.4810 C   0  0  0  0  0  0  0  0  0  0  0  0
  122.0250  127.2760  163.7990 C   0  0  0  0  0  0  0  0  0  0  0  0
  120.8400  126.6030  163.8320 C   0  0  0  0  0  0  0  0  0  0  0  0
  121.0970  125.2950  163.5460 N   0  0  0  0  0  0  0  0  0  0  0  0
  120.0840  124.2310  163.4810 C   0  0  0  0  0  0  0  0  0  0  0  0
  122.4320  125.1160  163.3300 C   0  0  0  0  0  0  0  0  0  0  0  0
  125.1200  125.7420  159.0470 N   0  0  0  0  0  0  0  0  0  0  0  0
  125.1090  125.0750  157.8510 C   0  0  0  0  0  0  0  0  0  0  0  0
  125.7300  124.0550  157.7270 O   0  0  0  0  0  0  0  0  0  0  0  0
  124.3490  125.6020  156.7310 C   0  0  0  0  0  0  0  0  0  0  0  0
  123.3440  124.8040  156.1920 C   0  0  0  0  0  0  0  0  0  0  0  0
  123.0880  123.5780  156.6970 O   0  0  0  0  0  0  0  0  0  0  0  0
  122.5810  125.2550  155.1190 C   0  0  0  0  0  0  0  0  0  0  0  0
  122.8200  126.5130  154.5760 C   0  0  0  0  0  0  0  0  0  0  0  0
  123.8230  127.3140  155.1120 C   0  0  0  0  0  0  0  0  0  0  0  0
  124.0450  128.5690  154.5530 C   0  0  0  0  0  0  0  0  0  0  0  0
  125.0410  129.3930  155.0670 C   0  0  0  0  0  0  0  0  0  0  0  0
  125.8180  128.9680  156.1400 C   0  0  0  0  0  0  0  0  0  0  0  0
  125.5780  127.7090  156.6820 C   0  0  0  0  0  0  0  0  0  0  0  0
  124.5870  126.8640  156.1860 C   0  0  0  0  0  0  0  0  0  0  0  0
  126.2810  124.3160  159.9470 H   0  0  0  0  0  0  0  0  0  0  0  0
  124.0230  124.8910  161.1270 H   0  0  0  0  0  0  0  0  0  0  0  0
  125.2770  124.2620  161.9640 H   0  0  0  0  0  0  0  0  0  0  0  0
  126.5910  127.7010  162.0600 H   0  0  0  0  0  0  0  0  0  0  0  0
  125.5670  127.7520  160.7880 H   0  0  0  0  0  0  0  0  0  0  0  0
  127.3810  126.5950  159.9240 H   0  0  0  0  0  0  0  0  0  0  0  0
  129.4360  125.8930  162.6960 H   0  0  0  0  0  0  0  0  0  0  0  0
  129.3360  126.8330  161.3640 H   0  0  0  0  0  0  0  0  0  0  0  0
  128.3520  127.1140  162.6380 H   0  0  0  0  0  0  0  0  0  0  0  0
  122.1590  128.2530  163.9670 H   0  0  0  0  0  0  0  0  0  0  0  0
  119.9420  126.9980  164.0310 H   0  0  0  0  0  0  0  0  0  0  0  0
  119.1820  124.6170  163.6780 H   0  0  0  0  0  0  0  0  0  0  0  0
  120.0820  123.8280  162.5660 H   0  0  0  0  0  0  0  0  0  0  0  0
  120.2990  123.5240  164.1560 H   0  0  0  0  0  0  0  0  0  0  0  0
  122.8870  124.2550  163.1030 H   0  0  0  0  0  0  0  0  0  0  0  0
  124.6210  126.6040  159.1430 H   0  0  0  0  0  0  0  0  0  0  0  0
  122.3640  123.0140  156.3000 H   0  0  0  0  0  0  0  0  0  0  0  0
  121.8620  124.6740  154.7380 H   0  0  0  0  0  0  0  0  0  0  0  0
  122.2740  126.8400  153.8040 H   0  0  0  0  0  0  0  0  0  0  0  0
  123.4890  128.8780  153.7810 H   0  0  0  0  0  0  0  0  0  0  0  0
  125.1990  130.2950  154.6640 H   0  0  0  0  0  0  0  0  0  0  0  0
  126.5360  129.5550  156.5140 H   0  0  0  0  0  0  0  0  0  0  0  0
  126.1360  127.4010  157.4530 H   0  0  0  0  0  0  0  0  0  0  0  0
  1 30  1  6  0  0  0
  1  5  1  0  0  0  0
  1  2  1  0  0  0  0
  2 32  1  0  0  0  0
  2  3  1  0  0  0  0
  3  8  1  0  0  0  0
  4 33  1  0  0  0  0
  4  3  1  0  0  0  0
  5 35  1  6  0  0  0
  5  4  1  0  0  0  0
  5  6  1  0  0  0  0
  6  7  1  0  0  0  0
  7 38  1  0  0  0  0
  7 36  1  0  0  0  0
  8 10  1  0  0  0  0
  8  9  2  0  0  0  0
 10 11  1  0  0  0  0
 11 12  2  0  0  0  0
 11 39  1  0  0  0  0
 12 40  1  0  0  0  0
 13 12  1  0  0  0  0
 14 13  1  0  0  0  0
 14 41  1  0  0  0  0
 14 43  1  0  0  0  0
 15 10  2  0  0  0  0
 15 13  1  0  0  0  0
 16 45  1  0  0  0  0
 16  1  1  0  0  0  0
 17 16  1  0  0  0  0
 18 17  2  0  0  0  0
 19 17  1  0  0  0  0
 20 21  1  0  0  0  0
 20 19  1  0  0  0  0
 22 20  2  0  0  0  0
 23 24  2  0  0  0  0
 23 22  1  0  0  0  0
 24 29  1  0  0  0  0
 25 26  2  0  0  0  0
 25 24  1  0  0  0  0
 26 27  1  0  0  0  0
 27 51  1  0  0  0  0
 27 28  2  0  0  0  0
 28 52  1  0  0  0  0
 29 28  1  0  0  0  0
 29 19  2  0  0  0  0
 31  2  1  0  0  0  0
 34  4  1  0  0  0  0
 37  7  1  0  0  0  0
 42 14  1  0  0  0  0
 44 15  1  0  0  0  0
 46 21  1  0  0  0  0
 47 22  1  0  0  0  0
 48 23  1  0  0  0  0
 49 25  1  0  0  0  0
 50 26  1  0  0  0  0
M  END
$$$$
PV-006689746410
 OpenBabel10092411533D

 55 58  0  0  1  0  0  0  0  0999 V2000
  124.6280  126.0220  163.0000 C   0  0  2  0  0  0  0  0  0  0  0  0
  124.5100  126.7940  164.3000 C   0  0  0  0  0  0  0  0  0  0  0  0
  123.4500  127.7110  164.1000 O   0  0  0  0  0  0  0  0  0  0  0  0
  123.3940  128.0280  162.7200 C   0  0  0  0  0  0  0  0  0  0  0  0
  124.4640  127.1910  162.0500 C   0  0  2  0  0  0  0  0  0  0  0  0
  124.0220  126.7190  160.7290 N   0  0  0  0  0  0  0  0  0  0  0  0
  124.7190  127.0770  159.6050 C   0  0  0  0  0  0  0  0  0  0  0  0
  124.3140  126.5710  158.3070 C   0  0  0  0  0  0  0  0  0  0  0  0
  123.1960  125.7460  158.2360 C   0  0  0  0  0  0  0  0  0  0  0  0
  122.7790  125.2430  157.0080 C   0  0  0  0  0  0  0  0  0  0  0  0
  123.4810  125.5650  155.8490 C   0  0  0  0  0  0  0  0  0  0  0  0
  124.5990  126.3910  155.9190 C   0  0  0  0  0  0  0  0  0  0  0  0
  125.0160  126.8940  157.1480 C   0  0  0  0  0  0  0  0  0  0  0  0
  126.2420  127.7930  157.1880 C   0  0  0  0  0  0  0  0  0  0  0  0
  125.6660  127.8110  159.6940 O   0  0  0  0  0  0  0  0  0  0  0  0
  123.5510  125.0300  162.8630 N   0  0  0  0  0  0  0  0  0  0  0  0
  123.8550  123.7220  162.5910 C   0  0  0  0  0  0  0  0  0  0  0  0
  125.0000  123.3860  162.4620 O   0  0  0  0  0  0  0  0  0  0  0  0
  122.7410  122.6960  162.4530 C   0  0  2  0  0  0  0  0  0  0  0  0
  122.3050  122.2330  163.8340 C   0  0  0  0  0  0  0  0  0  0  0  0
  122.2450  123.1480  164.8810 C   0  0  0  0  0  0  0  0  0  0  0  0
  121.8450  122.7150  166.1410 C   0  0  0  0  0  0  0  0  0  0  0  0
  121.5100  121.3800  166.3450 C   0  0  0  0  0  0  0  0  0  0  0  0
  121.5730  120.4710  165.2930 C   0  0  0  0  0  0  0  0  0  0  0  0
  121.9720  120.8950  164.0290 C   0  0  0  0  0  0  0  0  0  0  0  0
  123.0570  121.5610  161.4870 C   0  0  0  0  0  0  0  0  0  0  0  0
  121.9110  122.0050  160.5890 C   0  0  2  0  0  0  0  0  0  0  0  0
  122.3180  122.4380  159.2990 O   0  0  0  0  0  0  0  0  0  0  0  0
  121.5940  123.1400  161.5550 C   0  0  0  0  0  0  0  0  0  0  0  0
  125.5290  125.5990  162.9060 H   0  0  0  0  0  0  0  0  0  0  0  0
  124.2990  126.1750  165.0560 H   0  0  0  0  0  0  0  0  0  0  0  0
  125.3610  127.2820  164.4950 H   0  0  0  0  0  0  0  0  0  0  0  0
  123.5770  129.0010  162.5810 H   0  0  0  0  0  0  0  0  0  0  0  0
  122.4930  127.8010  162.3490 H   0  0  0  0  0  0  0  0  0  0  0  0
  125.3180  127.7060  161.9730 H   0  0  0  0  0  0  0  0  0  0  0  0
  123.2130  126.1360  160.6510 H   0  0  0  0  0  0  0  0  0  0  0  0
  122.6920  125.5140  159.0690 H   0  0  0  0  0  0  0  0  0  0  0  0
  121.9750  124.6500  156.9570 H   0  0  0  0  0  0  0  0  0  0  0  0
  123.1810  125.2030  154.9660 H   0  0  0  0  0  0  0  0  0  0  0  0
  125.1030  126.6230  155.0870 H   0  0  0  0  0  0  0  0  0  0  0  0
  126.6030  127.9060  156.2620 H   0  0  0  0  0  0  0  0  0  0  0  0
  125.9880  128.6870  157.5580 H   0  0  0  0  0  0  0  0  0  0  0  0
  126.9400  127.3780  157.7710 H   0  0  0  0  0  0  0  0  0  0  0  0
  122.5970  125.3110  162.9690 H   0  0  0  0  0  0  0  0  0  0  0  0
  122.4860  124.1070  164.7280 H   0  0  0  0  0  0  0  0  0  0  0  0
  121.7980  123.3640  166.9010 H   0  0  0  0  0  0  0  0  0  0  0  0
  121.2230  121.0720  167.2530 H   0  0  0  0  0  0  0  0  0  0  0  0
  121.3310  119.5120  165.4460 H   0  0  0  0  0  0  0  0  0  0  0  0
  122.0200  120.2460  163.2700 H   0  0  0  0  0  0  0  0  0  0  0  0
  122.9400  120.6480  161.8780 H   0  0  0  0  0  0  0  0  0  0  0  0
  123.9600  121.6280  161.0600 H   0  0  0  0  0  0  0  0  0  0  0  0
  121.1770  121.3260  160.5470 H   0  0  0  0  0  0  0  0  0  0  0  0
  121.5150  122.7140  158.7710 H   0  0  0  0  0  0  0  0  0  0  0  0
  121.7120  124.0530  161.1640 H   0  0  0  0  0  0  0  0  0  0  0  0
  120.6920  123.0730  161.9820 H   0  0  0  0  0  0  0  0  0  0  0  0
  1 30  1  6  0  0  0
  1  2  1  0  0  0  0
  2 32  1  0  0  0  0
  2 31  1  0  0  0  0
  3  2  1  0  0  0  0
  4  3  1  0  0  0  0
  5 35  1  6  0  0  0
  5  4  1  0  0  0  0
  5  1  1  0  0  0  0
  6  5  1  0  0  0  0
  7 15  2  0  0  0  0
  7  6  1  0  0  0  0
  8  7  1  0  0  0  0
  9  8  1  0  0  0  0
  9 37  1  0  0  0  0
 10  9  2  0  0  0  0
 11 12  2  0  0  0  0
 11 10  1  0  0  0  0
 12 13  1  0  0  0  0
 13 14  1  0  0  0  0
 13  8  2  0  0  0  0
 14 42  1  0  0  0  0
 14 43  1  0  0  0  0
 16 44  1  0  0  0  0
 16  1  1  0  0  0  0
 17 16  1  0  0  0  0
 18 17  2  0  0  0  0
 19 17  1  1  0  0  0
 19 20  1  0  0  0  0
 20 25  2  0  0  0  0
 20 21  1  0  0  0  0
 21 22  2  0  0  0  0
 22 23  1  0  0  0  0
 22 46  1  0  0  0  0
 23 47  1  0  0  0  0
 24 48  1  0  0  0  0
 24 23  2  0  0  0  0
 25 24  1  0  0  0  0
 26 50  1  0  0  0  0
 26 19  1  0  0  0  0
 27 52  1  6  0  0  0
 27 26  1  0  0  0  0
 27 29  1  0  0  0  0
 28 27  1  0  0  0  0
 29 55  1  0  0  0  0
 29 19  1  0  0  0  0
 33  4  1  0  0  0  0
 34  4  1  0  0  0  0
 36  6  1  0  0  0  0
 38 10  1  0  0  0  0
 39 11  1  0  0  0  0
 40 12  1  0  0  0  0
 41 14  1  0  0  0  0
 45 21  1  0  0  0  0
 49 25  1  0  0  0  0
 51 26  1  0  0  0  0
 53 28  1  0  0  0  0
 54 29  1  0  0  0  0
M  END
$$$$
