@<TRIPOS>MOLECULE
7byu.pdb.lig OpenBabel07112009413D
     4      3      1
SMALL
USER_CHARGES


@<TRIPOS>ATOM
       1  C12      -10.9710   29.1210  -22.4080 Any       1 RSD         0.2314
       2  O7        -9.8920   28.4350  -23.0580 Any       1 RSD        -0.4386
       3  C13      -10.4250   29.8070  -21.1700 Any       1 RSD         0.2314
       4  O8        -9.1410   30.3370  -21.5170 Any       1 RSD        -0.4386
@<TRIPOS>BOND
       1        1        3 1
       2        2        1 1
       3        4        3 1
