@<TRIPOS>MOLECULE
7byu.pdb.lig OpenBabel07112009413D
    17     16      1
SMALL
USER_CHARGES


@<TRIPOS>ATOM
       1  C1        -4.9600   22.9960  -28.7760 Any       1 RSD         0.2314
       2  C2        -2.9740   21.7870  -29.4120 Any       1 RSD         0.2314
       3  O1        -4.3550   21.7710  -29.1360 Any       1 RSD        -0.3386
       4  O2        -4.2500   24.7380  -27.2070 Any       1 RSD        -0.3386
       5  C3        -3.9710   24.1370  -28.4540 Any       1 RSD         0.2314
       6  C4        -5.6170   24.8550  -26.8840 Any       1 RSD         0.2314
       7  C5        -5.9340   24.6650  -25.3910 Any       1 RSD         0.2314
       8  O3        -7.0980   23.8860  -25.2440 Any       1 RSD        -0.3386
       9  C6        -7.7390   23.9460  -23.9870 Any       1 RSD         0.2314
      10  C7        -7.7320   22.5740  -23.2980 Any       1 RSD         0.2314
      11  O4        -7.9590   21.5660  -24.2560 Any       1 RSD        -0.3386
      12  C8        -7.5310   20.2620  -23.9500 Any       1 RSD         0.2314
      13  C9        -8.2240   19.2230  -24.8510 Any       1 RSD         0.2314
      14  O5        -7.6640   19.1560  -26.1470 Any       1 RSD        -0.3386
      15  C10       -7.4630   17.8640  -26.6790 Any       1 RSD         0.2314
      16  C11       -6.1270   17.8070  -27.4380 Any       1 RSD         0.2314
      17  O6        -5.5150   16.5410  -27.3510 Any       1 RSD        -0.4386
@<TRIPOS>BOND
       1        1        5 1
       2        2        3 1
       3        3        1 1
       4        4        6 1
       5        5        4 1
       6        6        7 1
       7        7        8 1
       8        8        9 1
       9        9       10 1
      10       11       12 1
      11       11       10 1
      12       13       12 1
      13       14       13 1
      14       15       14 1
      15       16       17 1
      16       16       15 1
