7l1u_receptor_and_orexin_empty_pocket_1_empty_space_aligned
  PyMOL2.5          3D                             0

  0  0  0  0  0  0  0  0  0  0999 V3000
M  V30 BEGIN CTAB
M  V30 COUNTS 433 3716 0 0 0
M  V30 BEGIN ATOM
M  V30 1 O -4.6450 1.9460 2.6360 0
M  V30 2 O -4.6450 1.9460 3.6360 0
M  V30 3 O -4.6450 1.9460 4.6360 0
M  V30 4 O -4.6450 2.9460 -1.3640 0
M  V30 5 O -4.6450 2.9460 -0.3640 0
M  V30 6 O -4.6450 2.9460 0.6360 0
M  V30 7 O -4.6450 2.9460 1.6360 0
M  V30 8 O -4.6450 2.9460 2.6360 0
M  V30 9 O -4.6450 2.9460 3.6360 0
M  V30 10 O -4.6450 -1.0540 3.6360 0
M  V30 11 O -4.6450 -1.0540 4.6360 0
M  V30 12 O -4.6450 -0.0540 -3.3640 0
M  V30 13 O -3.6450 -3.0540 2.6360 0
M  V30 14 O -4.6450 2.9460 4.6360 0
M  V30 15 O -3.6450 -3.0540 3.6360 0
M  V30 16 O -3.6450 -3.0540 4.6360 0
M  V30 17 O -4.6450 3.9460 -0.3640 0
M  V30 18 O -4.6450 3.9460 0.6360 0
M  V30 19 O -3.6450 -2.0540 1.6360 0
M  V30 20 O -3.6450 -2.0540 2.6360 0
M  V30 21 O -4.6450 3.9460 4.6360 0
M  V30 22 O -3.6450 -2.0540 3.6360 0
M  V30 23 O -3.6450 -2.0540 4.6360 0
M  V30 24 O -4.6450 4.9460 -0.3640 0
M  V30 25 O -4.6450 4.9460 0.6360 0
M  V30 26 O -3.6450 -3.0540 0.6360 0
M  V30 27 O -3.6450 -3.0540 1.6360 0
M  V30 28 O -4.6450 -3.0540 1.6360 0
M  V30 29 O -4.6450 -3.0540 2.6360 0
M  V30 30 O -4.6450 -0.0540 1.6360 0
M  V30 31 O -4.6450 -3.0540 3.6360 0
M  V30 32 O -4.6450 -0.0540 2.6360 0
M  V30 33 O -4.6450 -3.0540 4.6360 0
M  V30 34 O -4.6450 -0.0540 3.6360 0
M  V30 35 O -4.6450 -0.0540 4.6360 0
M  V30 36 O -4.6450 0.9460 -1.3640 0
M  V30 37 O -4.6450 -2.0540 2.6360 0
M  V30 38 O -4.6450 -2.0540 3.6360 0
M  V30 39 O -4.6450 0.9460 2.6360 0
M  V30 40 O -4.6450 -2.0540 4.6360 0
M  V30 41 O -4.6450 0.9460 3.6360 0
M  V30 42 O -4.6450 -1.0540 -3.3640 0
M  V30 43 O -4.6450 0.9460 4.6360 0
M  V30 44 O -4.6450 1.9460 -1.3640 0
M  V30 45 O -4.6450 1.9460 -0.3640 0
M  V30 46 O -4.6450 -1.0540 2.6360 0
M  V30 47 O -4.6450 1.9460 1.6360 0
M  V30 48 O -3.6450 0.9460 2.6360 0
M  V30 49 O -3.6450 -0.0540 1.6360 0
M  V30 50 O -3.6450 -0.0540 2.6360 0
M  V30 51 O -3.6450 -0.0540 3.6360 0
M  V30 52 O -3.6450 -0.0540 4.6360 0
M  V30 53 O -3.6450 0.9460 -0.3640 0
M  V30 54 O -3.6450 -1.0540 1.6360 0
M  V30 55 O -3.6450 -1.0540 2.6360 0
M  V30 56 O -3.6450 -1.0540 3.6360 0
M  V30 57 O -3.6450 -1.0540 4.6360 0
M  V30 58 O -2.6450 -1.0540 1.6360 0
M  V30 59 O -2.6450 -2.0540 0.6360 0
M  V30 60 O -2.6450 -2.0540 1.6360 0
M  V30 61 O -2.6450 -2.0540 2.6360 0
M  V30 62 O -2.6450 -2.0540 3.6360 0
M  V30 63 O -2.6450 -2.0540 4.6360 0
M  V30 64 O -3.6450 0.9460 3.6360 0
M  V30 65 O -3.6450 0.9460 4.6360 0
M  V30 66 O -3.6450 1.9460 -0.3640 0
M  V30 67 O -3.6450 1.9460 0.6360 0
M  V30 68 O -3.6450 4.9460 -0.3640 0
M  V30 69 O -3.6450 1.9460 1.6360 0
M  V30 70 O -3.6450 1.9460 2.6360 0
M  V30 71 O -3.6450 1.9460 3.6360 0
M  V30 72 O -3.6450 1.9460 4.6360 0
M  V30 73 O -3.6450 2.9460 -0.3640 0
M  V30 74 O -3.6450 2.9460 0.6360 0
M  V30 75 O -3.6450 2.9460 1.6360 0
M  V30 76 O -2.6450 -3.0540 1.6360 0
M  V30 77 O -3.6450 2.9460 3.6360 0
M  V30 78 O -2.6450 -3.0540 2.6360 0
M  V30 79 O -3.6450 2.9460 4.6360 0
M  V30 80 O -2.6450 -3.0540 4.6360 0
M  V30 81 O -3.6450 3.9460 -0.3640 0
M  V30 82 O -2.6450 -1.0540 2.6360 0
M  V30 83 O -2.6450 -1.0540 3.6360 0
M  V30 84 O -2.6450 -1.0540 4.6360 0
M  V30 85 O -2.6450 -0.0540 0.6360 0
M  V30 86 O -2.6450 -0.0540 2.6360 0
M  V30 87 O -2.6450 -0.0540 3.6360 0
M  V30 88 O -2.6450 -0.0540 4.6360 0
M  V30 89 O -1.6450 -3.0540 0.6360 0
M  V30 90 O -2.6450 4.9460 0.6360 0
M  V30 91 O -2.6450 1.9460 0.6360 0
M  V30 92 O -2.6450 1.9460 2.6360 0
M  V30 93 O -2.6450 1.9460 3.6360 0
M  V30 94 O -2.6450 1.9460 4.6360 0
M  V30 95 O -2.6450 2.9460 0.6360 0
M  V30 96 O -2.6450 2.9460 2.6360 0
M  V30 97 O -2.6450 2.9460 3.6360 0
M  V30 98 O -2.6450 2.9460 4.6360 0
M  V30 99 O -2.6450 0.9460 -1.3640 0
M  V30 100 O -2.6450 0.9460 -0.3640 0
M  V30 101 O -2.6450 3.9460 -0.3640 0
M  V30 102 O -2.6450 0.9460 3.6360 0
M  V30 103 O -2.6450 0.9460 4.6360 0
M  V30 104 O -2.6450 3.9460 4.6360 0
M  V30 105 O -2.6450 1.9460 -0.3640 0
M  V30 106 O -1.6450 -0.0540 -0.3640 0
M  V30 107 O -1.6450 -3.0540 1.6360 0
M  V30 108 O -1.6450 -0.0540 0.6360 0
M  V30 109 O -1.6450 -3.0540 2.6360 0
M  V30 110 O -1.6450 -0.0540 1.6360 0
M  V30 111 O -1.6450 -0.0540 2.6360 0
M  V30 112 O -1.6450 -3.0540 4.6360 0
M  V30 113 O -1.6450 -0.0540 3.6360 0
M  V30 114 O -1.6450 -0.0540 4.6360 0
M  V30 115 O -1.6450 0.9460 -2.3640 0
M  V30 116 O -1.6450 -2.0540 -0.3640 0
M  V30 117 O -1.6450 0.9460 -1.3640 0
M  V30 118 O -1.6450 -2.0540 0.6360 0
M  V30 119 O -1.6450 0.9460 -0.3640 0
M  V30 120 O -1.6450 -2.0540 1.6360 0
M  V30 121 O -1.6450 0.9460 0.6360 0
M  V30 122 O -1.6450 -2.0540 2.6360 0
M  V30 123 O -1.6450 -2.0540 3.6360 0
M  V30 124 O -1.6450 0.9460 2.6360 0
M  V30 125 O -1.6450 -2.0540 4.6360 0
M  V30 126 O -1.6450 0.9460 3.6360 0
M  V30 127 O -1.6450 0.9460 4.6360 0
M  V30 128 O -1.6450 -1.0540 0.6360 0
M  V30 129 O -1.6450 1.9460 -0.3640 0
M  V30 130 O -1.6450 -1.0540 1.6360 0
M  V30 131 O -1.6450 1.9460 0.6360 0
M  V30 132 O -1.6450 -1.0540 2.6360 0
M  V30 133 O -1.6450 1.9460 1.6360 0
M  V30 134 O -1.6450 -1.0540 3.6360 0
M  V30 135 O -1.6450 1.9460 2.6360 0
M  V30 136 O -1.6450 -1.0540 4.6360 0
M  V30 137 O -1.6450 1.9460 3.6360 0
M  V30 138 O -1.6450 -0.0540 -3.3640 0
M  V30 139 O -1.6450 1.9460 4.6360 0
M  V30 140 O -1.6450 -0.0540 -2.3640 0
M  V30 141 O -1.6450 -0.0540 -1.3640 0
M  V30 142 O -1.6450 3.9460 -0.3640 0
M  V30 143 O -1.6450 2.9460 -0.3640 0
M  V30 144 O -1.6450 2.9460 0.6360 0
M  V30 145 O -1.6450 2.9460 1.6360 0
M  V30 146 O -1.6450 2.9460 2.6360 0
M  V30 147 O -1.6450 2.9460 3.6360 0
M  V30 148 O -1.6450 2.9460 4.6360 0
M  V30 149 O -0.6450 1.9460 -1.3640 0
M  V30 150 O -0.6450 0.9460 -2.3640 0
M  V30 151 O -0.6450 0.9460 -1.3640 0
M  V30 152 O -0.6450 0.9460 -0.3640 0
M  V30 153 O -0.6450 0.9460 0.6360 0
M  V30 154 O -0.6450 0.9460 1.6360 0
M  V30 155 O -0.6450 0.9460 2.6360 0
M  V30 156 O -0.6450 0.9460 3.6360 0
M  V30 157 O -0.6450 0.9460 4.6360 0
M  V30 158 O -0.6450 1.9460 -2.3640 0
M  V30 159 O -0.6450 -2.0540 -1.3640 0
M  V30 160 O -1.6450 3.9460 0.6360 0
M  V30 161 O -0.6450 -2.0540 -0.3640 0
M  V30 162 O -0.6450 -2.0540 0.6360 0
M  V30 163 O -1.6450 3.9460 2.6360 0
M  V30 164 O -0.6450 -2.0540 1.6360 0
M  V30 165 O -1.6450 3.9460 3.6360 0
M  V30 166 O -0.6450 -2.0540 2.6360 0
M  V30 167 O -1.6450 3.9460 4.6360 0
M  V30 168 O -0.6450 -2.0540 3.6360 0
M  V30 169 O -0.6450 -2.0540 4.6360 0
M  V30 170 O -0.6450 -1.0540 -3.3640 0
M  V30 171 O -0.6450 -1.0540 -2.3640 0
M  V30 172 O -1.6450 4.9460 -0.3640 0
M  V30 173 O -0.6450 -1.0540 -1.3640 0
M  V30 174 O -1.6450 4.9460 0.6360 0
M  V30 175 O -0.6450 -1.0540 -0.3640 0
M  V30 176 O -0.6450 -1.0540 0.6360 0
M  V30 177 O -0.6450 -1.0540 1.6360 0
M  V30 178 O -1.6450 4.9460 3.6360 0
M  V30 179 O -0.6450 -1.0540 2.6360 0
M  V30 180 O -1.6450 4.9460 4.6360 0
M  V30 181 O -0.6450 -1.0540 3.6360 0
M  V30 182 O -0.6450 -3.0540 -3.3640 0
M  V30 183 O -0.6450 -1.0540 4.6360 0
M  V30 184 O -0.6450 -3.0540 -2.3640 0
M  V30 185 O -0.6450 -0.0540 -3.3640 0
M  V30 186 O -0.6450 -3.0540 -1.3640 0
M  V30 187 O -0.6450 -0.0540 -2.3640 0
M  V30 188 O -0.6450 -3.0540 -0.3640 0
M  V30 189 O -0.6450 -0.0540 -1.3640 0
M  V30 190 O -0.6450 -3.0540 0.6360 0
M  V30 191 O -0.6450 -0.0540 -0.3640 0
M  V30 192 O -0.6450 -3.0540 1.6360 0
M  V30 193 O -0.6450 -0.0540 0.6360 0
M  V30 194 O -0.6450 -3.0540 2.6360 0
M  V30 195 O -0.6450 -0.0540 1.6360 0
M  V30 196 O -0.6450 -3.0540 3.6360 0
M  V30 197 O -0.6450 -0.0540 2.6360 0
M  V30 198 O -0.6450 -3.0540 4.6360 0
M  V30 199 O -0.6450 -0.0540 3.6360 0
M  V30 200 O -0.6450 -2.0540 -3.3640 0
M  V30 201 O -0.6450 -0.0540 4.6360 0
M  V30 202 O -0.6450 0.9460 -3.3640 0
M  V30 203 O -0.6450 1.9460 -0.3640 0
M  V30 204 O -0.6450 4.9460 -1.3640 0
M  V30 205 O -0.6450 1.9460 0.6360 0
M  V30 206 O -0.6450 4.9460 -0.3640 0
M  V30 207 O -0.6450 1.9460 1.6360 0
M  V30 208 O -0.6450 1.9460 2.6360 0
M  V30 209 O -0.6450 1.9460 3.6360 0
M  V30 210 O -0.6450 1.9460 4.6360 0
M  V30 211 O -0.6450 2.9460 -1.3640 0
M  V30 212 O -0.6450 2.9460 -0.3640 0
M  V30 213 O -0.6450 2.9460 0.6360 0
M  V30 214 O -0.6450 2.9460 1.6360 0
M  V30 215 O -0.6450 2.9460 2.6360 0
M  V30 216 O -0.6450 2.9460 3.6360 0
M  V30 217 O -0.6450 2.9460 4.6360 0
M  V30 218 O -0.6450 3.9460 -2.3640 0
M  V30 219 O -0.6450 3.9460 -1.3640 0
M  V30 220 O -0.6450 3.9460 -0.3640 0
M  V30 221 O -0.6450 3.9460 0.6360 0
M  V30 222 O -0.6450 3.9460 1.6360 0
M  V30 223 O -0.6450 3.9460 2.6360 0
M  V30 224 O -0.6450 3.9460 3.6360 0
M  V30 225 O -0.6450 3.9460 4.6360 0
M  V30 226 O -0.6450 4.9460 -3.3640 0
M  V30 227 O 0.3550 -0.0540 -2.3640 0
M  V30 228 O 0.3550 -1.0540 -2.3640 0
M  V30 229 O 0.3550 -1.0540 -1.3640 0
M  V30 230 O 0.3550 -1.0540 -0.3640 0
M  V30 231 O 0.3550 -1.0540 0.6360 0
M  V30 232 O 0.3550 -1.0540 1.6360 0
M  V30 233 O 0.3550 -1.0540 2.6360 0
M  V30 234 O 0.3550 -1.0540 3.6360 0
M  V30 235 O 0.3550 -1.0540 4.6360 0
M  V30 236 O 0.3550 -0.0540 -3.3640 0
M  V30 237 O -0.6450 4.9460 0.6360 0
M  V30 238 O -0.6450 4.9460 1.6360 0
M  V30 239 O -0.6450 4.9460 2.6360 0
M  V30 240 O -0.6450 4.9460 3.6360 0
M  V30 241 O 0.3550 -3.0540 -3.3640 0
M  V30 242 O 0.3550 -3.0540 -2.3640 0
M  V30 243 O 0.3550 -3.0540 -1.3640 0
M  V30 244 O 0.3550 -3.0540 -0.3640 0
M  V30 245 O 0.3550 -3.0540 0.6360 0
M  V30 246 O 0.3550 -3.0540 1.6360 0
M  V30 247 O 0.3550 -3.0540 2.6360 0
M  V30 248 O 0.3550 -3.0540 3.6360 0
M  V30 249 O 0.3550 -3.0540 4.6360 0
M  V30 250 O 0.3550 -2.0540 -2.3640 0
M  V30 251 O 0.3550 -2.0540 -1.3640 0
M  V30 252 O 0.3550 -2.0540 -0.3640 0
M  V30 253 O 0.3550 -2.0540 0.6360 0
M  V30 254 O 0.3550 -2.0540 1.6360 0
M  V30 255 O 0.3550 -2.0540 2.6360 0
M  V30 256 O 0.3550 -2.0540 3.6360 0
M  V30 257 O 0.3550 -2.0540 4.6360 0
M  V30 258 O 1.3550 -2.0540 -3.3640 0
M  V30 259 O 1.3550 -3.0540 -3.3640 0
M  V30 260 O 1.3550 -3.0540 -2.3640 0
M  V30 261 O 1.3550 -3.0540 -1.3640 0
M  V30 262 O 1.3550 -3.0540 -0.3640 0
M  V30 263 O 1.3550 -3.0540 0.6360 0
M  V30 264 O 1.3550 -3.0540 1.6360 0
M  V30 265 O 1.3550 -3.0540 2.6360 0
M  V30 266 O 1.3550 -3.0540 3.6360 0
M  V30 267 O 1.3550 -3.0540 4.6360 0
M  V30 268 O 0.3550 -0.0540 -1.3640 0
M  V30 269 O 0.3550 -0.0540 -0.3640 0
M  V30 270 O 0.3550 2.9460 -1.3640 0
M  V30 271 O 0.3550 -0.0540 0.6360 0
M  V30 272 O 0.3550 2.9460 -0.3640 0
M  V30 273 O 0.3550 -0.0540 1.6360 0
M  V30 274 O 0.3550 2.9460 0.6360 0
M  V30 275 O 0.3550 -0.0540 2.6360 0
M  V30 276 O 0.3550 2.9460 1.6360 0
M  V30 277 O 0.3550 -0.0540 3.6360 0
M  V30 278 O 0.3550 2.9460 2.6360 0
M  V30 279 O 0.3550 -0.0540 4.6360 0
M  V30 280 O 0.3550 2.9460 3.6360 0
M  V30 281 O 0.3550 0.9460 -3.3640 0
M  V30 282 O 0.3550 2.9460 4.6360 0
M  V30 283 O 0.3550 0.9460 -2.3640 0
M  V30 284 O 0.3550 0.9460 -1.3640 0
M  V30 285 O 0.3550 3.9460 -2.3640 0
M  V30 286 O 0.3550 0.9460 -0.3640 0
M  V30 287 O 0.3550 3.9460 -1.3640 0
M  V30 288 O 0.3550 0.9460 0.6360 0
M  V30 289 O 0.3550 3.9460 -0.3640 0
M  V30 290 O 0.3550 0.9460 1.6360 0
M  V30 291 O 0.3550 3.9460 0.6360 0
M  V30 292 O 0.3550 0.9460 2.6360 0
M  V30 293 O 0.3550 3.9460 1.6360 0
M  V30 294 O 0.3550 0.9460 3.6360 0
M  V30 295 O 0.3550 3.9460 2.6360 0
M  V30 296 O 0.3550 0.9460 4.6360 0
M  V30 297 O 0.3550 3.9460 3.6360 0
M  V30 298 O 0.3550 1.9460 -2.3640 0
M  V30 299 O 0.3550 4.9460 -3.3640 0
M  V30 300 O 0.3550 1.9460 -1.3640 0
M  V30 301 O 0.3550 4.9460 -2.3640 0
M  V30 302 O 0.3550 1.9460 -0.3640 0
M  V30 303 O 0.3550 4.9460 -1.3640 0
M  V30 304 O 0.3550 1.9460 0.6360 0
M  V30 305 O 0.3550 4.9460 -0.3640 0
M  V30 306 O 0.3550 1.9460 1.6360 0
M  V30 307 O 0.3550 4.9460 0.6360 0
M  V30 308 O 0.3550 1.9460 2.6360 0
M  V30 309 O 0.3550 1.9460 3.6360 0
M  V30 310 O 0.3550 1.9460 4.6360 0
M  V30 311 O 1.3550 -2.0540 -2.3640 0
M  V30 312 O 1.3550 -2.0540 -1.3640 0
M  V30 313 O 1.3550 -2.0540 -0.3640 0
M  V30 314 O 1.3550 3.9460 4.6360 0
M  V30 315 O 1.3550 2.9460 3.6360 0
M  V30 316 O 1.3550 2.9460 4.6360 0
M  V30 317 O 1.3550 3.9460 -1.3640 0
M  V30 318 O 1.3550 3.9460 -0.3640 0
M  V30 319 O 1.3550 3.9460 0.6360 0
M  V30 320 O 1.3550 3.9460 2.6360 0
M  V30 321 O 1.3550 -0.0540 4.6360 0
M  V30 322 O 1.3550 0.9460 -3.3640 0
M  V30 323 O 1.3550 0.9460 -2.3640 0
M  V30 324 O 1.3550 0.9460 -1.3640 0
M  V30 325 O 1.3550 0.9460 0.6360 0
M  V30 326 O 1.3550 -2.0540 2.6360 0
M  V30 327 O 1.3550 0.9460 1.6360 0
M  V30 328 O 1.3550 -2.0540 3.6360 0
M  V30 329 O 1.3550 0.9460 2.6360 0
M  V30 330 O 1.3550 -2.0540 4.6360 0
M  V30 331 O 1.3550 0.9460 3.6360 0
M  V30 332 O 1.3550 -1.0540 -3.3640 0
M  V30 333 O 1.3550 0.9460 4.6360 0
M  V30 334 O 1.3550 -1.0540 -2.3640 0
M  V30 335 O 1.3550 -1.0540 -1.3640 0
M  V30 336 O 1.3550 1.9460 -2.3640 0
M  V30 337 O 1.3550 -1.0540 -0.3640 0
M  V30 338 O 1.3550 1.9460 -1.3640 0
M  V30 339 O 1.3550 -1.0540 0.6360 0
M  V30 340 O 1.3550 1.9460 -0.3640 0
M  V30 341 O 1.3550 -1.0540 1.6360 0
M  V30 342 O 1.3550 1.9460 0.6360 0
M  V30 343 O 1.3550 -1.0540 2.6360 0
M  V30 344 O 1.3550 1.9460 1.6360 0
M  V30 345 O 1.3550 -1.0540 3.6360 0
M  V30 346 O 1.3550 1.9460 2.6360 0
M  V30 347 O 1.3550 -1.0540 4.6360 0
M  V30 348 O 1.3550 1.9460 3.6360 0
M  V30 349 O 1.3550 -0.0540 -3.3640 0
M  V30 350 O 1.3550 1.9460 4.6360 0
M  V30 351 O 1.3550 -0.0540 -2.3640 0
M  V30 352 O 1.3550 -0.0540 -1.3640 0
M  V30 353 O 1.3550 -0.0540 -0.3640 0
M  V30 354 O 1.3550 2.9460 -1.3640 0
M  V30 355 O 1.3550 -0.0540 0.6360 0
M  V30 356 O 1.3550 2.9460 -0.3640 0
M  V30 357 O 1.3550 -0.0540 1.6360 0
M  V30 358 O 1.3550 2.9460 0.6360 0
M  V30 359 O 1.3550 -0.0540 2.6360 0
M  V30 360 O 1.3550 2.9460 1.6360 0
M  V30 361 O 1.3550 -0.0540 3.6360 0
M  V30 362 O 1.3550 2.9460 2.6360 0
M  V30 363 O 2.3550 -2.0540 3.6360 0
M  V30 364 O 2.3550 -2.0540 4.6360 0
M  V30 365 O 2.3550 -1.0540 -3.3640 0
M  V30 366 O 1.3550 4.9460 -1.3640 0
M  V30 367 O 2.3550 -1.0540 -2.3640 0
M  V30 368 O 2.3550 -1.0540 -1.3640 0
M  V30 369 O 2.3550 -1.0540 -0.3640 0
M  V30 370 O 2.3550 -1.0540 3.6360 0
M  V30 371 O 2.3550 -3.0540 -3.3640 0
M  V30 372 O 2.3550 -1.0540 4.6360 0
M  V30 373 O 2.3550 -3.0540 -2.3640 0
M  V30 374 O 2.3550 -3.0540 -1.3640 0
M  V30 375 O 2.3550 -0.0540 0.6360 0
M  V30 376 O 2.3550 -0.0540 1.6360 0
M  V30 377 O 2.3550 -3.0540 3.6360 0
M  V30 378 O 2.3550 -3.0540 4.6360 0
M  V30 379 O 2.3550 -2.0540 -3.3640 0
M  V30 380 O 2.3550 -2.0540 -2.3640 0
M  V30 381 O 2.3550 -2.0540 -1.3640 0
M  V30 382 O 2.3550 1.9460 3.6360 0
M  V30 383 O 2.3550 0.9460 2.6360 0
M  V30 384 O 2.3550 0.9460 3.6360 0
M  V30 385 O 2.3550 0.9460 4.6360 0
M  V30 386 O 2.3550 1.9460 -2.3640 0
M  V30 387 O 2.3550 1.9460 -1.3640 0
M  V30 388 O 2.3550 1.9460 0.6360 0
M  V30 389 O 2.3550 1.9460 1.6360 0
M  V30 390 O 2.3550 1.9460 2.6360 0
M  V30 391 O 2.3550 -0.0540 2.6360 0
M  V30 392 O 2.3550 -0.0540 3.6360 0
M  V30 393 O 2.3550 -0.0540 4.6360 0
M  V30 394 O 2.3550 0.9460 -3.3640 0
M  V30 395 O 2.3550 0.9460 -2.3640 0
M  V30 396 O 2.3550 0.9460 1.6360 0
M  V30 397 O 3.3550 -0.0540 2.6360 0
M  V30 398 O 3.3550 -1.0540 3.6360 0
M  V30 399 O 3.3550 -1.0540 4.6360 0
M  V30 400 O 3.3550 -0.0540 0.6360 0
M  V30 401 O 2.3550 1.9460 4.6360 0
M  V30 402 O 3.3550 -3.0540 -3.3640 0
M  V30 403 O 2.3550 2.9460 -1.3640 0
M  V30 404 O 3.3550 -3.0540 -2.3640 0
M  V30 405 O 2.3550 2.9460 -0.3640 0
M  V30 406 O 2.3550 2.9460 2.6360 0
M  V30 407 O 2.3550 2.9460 3.6360 0
M  V30 408 O 2.3550 2.9460 4.6360 0
M  V30 409 O 3.3550 -3.0540 3.6360 0
M  V30 410 O 3.3550 -3.0540 4.6360 0
M  V30 411 O 3.3550 -2.0540 -3.3640 0
M  V30 412 O 3.3550 -2.0540 -2.3640 0
M  V30 413 O 2.3550 3.9460 -0.3640 0
M  V30 414 O 3.3550 -2.0540 -1.3640 0
M  V30 415 O 2.3550 3.9460 1.6360 0
M  V30 416 O 2.3550 3.9460 2.6360 0
M  V30 417 O 2.3550 3.9460 3.6360 0
M  V30 418 O 3.3550 -2.0540 4.6360 0
M  V30 419 O 2.3550 4.9460 -1.3640 0
M  V30 420 O 3.3550 -0.0540 3.6360 0
M  V30 421 O 3.3550 -0.0540 4.6360 0
M  V30 422 O 3.3550 0.9460 0.6360 0
M  V30 423 O 3.3550 0.9460 1.6360 0
M  V30 424 O 3.3550 0.9460 2.6360 0
M  V30 425 O 3.3550 0.9460 3.6360 0
M  V30 426 O 3.3550 0.9460 4.6360 0
M  V30 427 O 3.3550 2.9460 3.6360 0
M  V30 428 O 3.3550 3.9460 -1.3640 0
M  V30 429 O 3.3550 1.9460 3.6360 0
M  V30 430 O 3.3550 4.9460 2.6360 0
M  V30 431 O 3.3550 1.9460 4.6360 0
M  V30 432 O 3.3550 4.9460 3.6360 0
M  V30 433 O 3.3550 2.9460 -1.3640 0
M  V30 END ATOM
M  V30 BEGIN BOND
M  V30 1 1 1 2
M  V30 2 1 1 7
M  V30 3 1 1 8
M  V30 4 1 1 9
M  V30 5 1 1 39
M  V30 6 1 1 41
M  V30 7 1 1 47
M  V30 8 1 1 48
M  V30 9 1 1 64
M  V30 10 1 1 69
M  V30 11 1 1 70
M  V30 12 1 1 71
M  V30 13 1 1 75
M  V30 14 1 1 77
M  V30 15 1 2 3
M  V30 16 1 2 8
M  V30 17 1 2 9
M  V30 18 1 2 14
M  V30 19 1 2 39
M  V30 20 1 2 41
M  V30 21 1 2 43
M  V30 22 1 2 48
M  V30 23 1 2 64
M  V30 24 1 2 65
M  V30 25 1 2 70
M  V30 26 1 2 71
M  V30 27 1 2 72
M  V30 28 1 2 77
M  V30 29 1 2 79
M  V30 30 1 3 9
M  V30 31 1 3 14
M  V30 32 1 3 41
M  V30 33 1 3 43
M  V30 34 1 3 64
M  V30 35 1 3 65
M  V30 36 1 3 71
M  V30 37 1 3 72
M  V30 38 1 3 77
M  V30 39 1 3 79
M  V30 40 1 4 5
M  V30 41 1 4 17
M  V30 42 1 4 44
M  V30 43 1 4 45
M  V30 44 1 4 66
M  V30 45 1 4 73
M  V30 46 1 4 81
M  V30 47 1 5 6
M  V30 48 1 5 17
M  V30 49 1 5 18
M  V30 50 1 5 44
M  V30 51 1 5 45
M  V30 52 1 5 66
M  V30 53 1 5 67
M  V30 54 1 5 73
M  V30 55 1 5 74
M  V30 56 1 5 81
M  V30 57 1 6 7
M  V30 58 1 6 17
M  V30 59 1 6 18
M  V30 60 1 6 45
M  V30 61 1 6 47
M  V30 62 1 6 66
M  V30 63 1 6 67
M  V30 64 1 6 69
M  V30 65 1 6 73
M  V30 66 1 6 74
M  V30 67 1 6 75
M  V30 68 1 6 81
M  V30 69 1 7 8
M  V30 70 1 7 18
M  V30 71 1 7 47
M  V30 72 1 7 67
M  V30 73 1 7 69
M  V30 74 1 7 70
M  V30 75 1 7 74
M  V30 76 1 7 75
M  V30 77 1 8 9
M  V30 78 1 8 47
M  V30 79 1 8 69
M  V30 80 1 8 70
M  V30 81 1 8 71
M  V30 82 1 8 75
M  V30 83 1 8 77
M  V30 84 1 9 14
M  V30 85 1 9 21
M  V30 86 1 9 70
M  V30 87 1 9 71
M  V30 88 1 9 72
M  V30 89 1 9 77
M  V30 90 1 9 79
M  V30 91 1 10 11
M  V30 92 1 10 20
M  V30 93 1 10 22
M  V30 94 1 10 23
M  V30 95 1 10 32
M  V30 96 1 10 34
M  V30 97 1 10 35
M  V30 98 1 10 37
M  V30 99 1 10 38
M  V30 100 1 10 40
M  V30 101 1 10 46
M  V30 102 1 10 50
M  V30 103 1 10 51
M  V30 104 1 10 52
M  V30 105 1 10 55
M  V30 106 1 10 56
M  V30 107 1 10 57
M  V30 108 1 11 22
M  V30 109 1 11 23
M  V30 110 1 11 34
M  V30 111 1 11 35
M  V30 112 1 11 38
M  V30 113 1 11 40
M  V30 114 1 11 51
M  V30 115 1 11 52
M  V30 116 1 11 56
M  V30 117 1 11 57
M  V30 118 1 12 42
M  V30 119 1 13 15
M  V30 120 1 13 19
M  V30 121 1 13 20
M  V30 122 1 13 22
M  V30 123 1 13 27
M  V30 124 1 13 28
M  V30 125 1 13 29
M  V30 126 1 13 31
M  V30 127 1 13 37
M  V30 128 1 13 38
M  V30 129 1 13 60
M  V30 130 1 13 61
M  V30 131 1 13 62
M  V30 132 1 13 76
M  V30 133 1 13 78
M  V30 134 1 14 21
M  V30 135 1 14 71
M  V30 136 1 14 72
M  V30 137 1 14 77
M  V30 138 1 14 79
M  V30 139 1 15 16
M  V30 140 1 15 20
M  V30 141 1 15 22
M  V30 142 1 15 23
M  V30 143 1 15 29
M  V30 144 1 15 31
M  V30 145 1 15 33
M  V30 146 1 15 37
M  V30 147 1 15 38
M  V30 148 1 15 40
M  V30 149 1 15 61
M  V30 150 1 15 62
M  V30 151 1 15 63
M  V30 152 1 15 78
M  V30 153 1 15 80
M  V30 154 1 16 22
M  V30 155 1 16 23
M  V30 156 1 16 31
M  V30 157 1 16 33
M  V30 158 1 16 38
M  V30 159 1 16 40
M  V30 160 1 16 62
M  V30 161 1 16 63
M  V30 162 1 16 80
M  V30 163 1 17 18
M  V30 164 1 17 24
M  V30 165 1 17 25
M  V30 166 1 17 68
M  V30 167 1 17 73
M  V30 168 1 17 74
M  V30 169 1 17 81
M  V30 170 1 18 24
M  V30 171 1 18 25
M  V30 172 1 18 68
M  V30 173 1 18 73
M  V30 174 1 18 74
M  V30 175 1 18 75
M  V30 176 1 18 81
M  V30 177 1 19 20
M  V30 178 1 19 26
M  V30 179 1 19 27
M  V30 180 1 19 28
M  V30 181 1 19 29
M  V30 182 1 19 37
M  V30 183 1 19 46
M  V30 184 1 19 54
M  V30 185 1 19 55
M  V30 186 1 19 58
M  V30 187 1 19 59
M  V30 188 1 19 60
M  V30 189 1 19 61
M  V30 190 1 19 76
M  V30 191 1 19 78
M  V30 192 1 19 82
M  V30 193 1 20 22
M  V30 194 1 20 27
M  V30 195 1 20 28
M  V30 196 1 20 29
M  V30 197 1 20 31
M  V30 198 1 20 37
M  V30 199 1 20 38
M  V30 200 1 20 46
M  V30 201 1 20 54
M  V30 202 1 20 55
M  V30 203 1 20 56
M  V30 204 1 20 58
M  V30 205 1 20 60
M  V30 206 1 20 61
M  V30 207 1 20 62
M  V30 208 1 20 76
M  V30 209 1 20 78
M  V30 210 1 20 82
M  V30 211 1 20 83
M  V30 212 1 21 77
M  V30 213 1 21 79
M  V30 214 1 22 23
M  V30 215 1 22 29
M  V30 216 1 22 31
M  V30 217 1 22 33
M  V30 218 1 22 37
M  V30 219 1 22 38
M  V30 220 1 22 40
M  V30 221 1 22 46
M  V30 222 1 22 55
M  V30 223 1 22 56
M  V30 224 1 22 57
M  V30 225 1 22 61
M  V30 226 1 22 62
M  V30 227 1 22 63
M  V30 228 1 22 78
M  V30 229 1 22 80
M  V30 230 1 22 82
M  V30 231 1 22 83
M  V30 232 1 22 84
M  V30 233 1 23 31
M  V30 234 1 23 33
M  V30 235 1 23 38
M  V30 236 1 23 40
M  V30 237 1 23 56
M  V30 238 1 23 57
M  V30 239 1 23 62
M  V30 240 1 23 63
M  V30 241 1 23 80
M  V30 242 1 23 83
M  V30 243 1 23 84
M  V30 244 1 24 25
M  V30 245 1 24 68
M  V30 246 1 24 81
M  V30 247 1 25 68
M  V30 248 1 25 81
M  V30 249 1 26 27
M  V30 250 1 26 28
M  V30 251 1 26 59
M  V30 252 1 26 60
M  V30 253 1 26 76
M  V30 254 1 27 28
M  V30 255 1 27 29
M  V30 256 1 27 37
M  V30 257 1 27 59
M  V30 258 1 27 60
M  V30 259 1 27 61
M  V30 260 1 27 76
M  V30 261 1 27 78
M  V30 262 1 28 29
M  V30 263 1 28 37
M  V30 264 1 29 31
M  V30 265 1 29 37
M  V30 266 1 29 38
M  V30 267 1 30 32
M  V30 268 1 30 39
M  V30 269 1 30 46
M  V30 270 1 30 48
M  V30 271 1 30 49
M  V30 272 1 30 50
M  V30 273 1 30 54
M  V30 274 1 30 55
M  V30 275 1 31 33
M  V30 276 1 31 37
M  V30 277 1 31 38
M  V30 278 1 31 40
M  V30 279 1 32 34
M  V30 280 1 32 39
M  V30 281 1 32 41
M  V30 282 1 32 46
M  V30 283 1 32 48
M  V30 284 1 32 49
M  V30 285 1 32 50
M  V30 286 1 32 51
M  V30 287 1 32 54
M  V30 288 1 32 55
M  V30 289 1 32 56
M  V30 290 1 32 64
M  V30 291 1 33 38
M  V30 292 1 33 40
M  V30 293 1 34 35
M  V30 294 1 34 39
M  V30 295 1 34 41
M  V30 296 1 34 43
M  V30 297 1 34 46
M  V30 298 1 34 48
M  V30 299 1 34 50
M  V30 300 1 34 51
M  V30 301 1 34 52
M  V30 302 1 34 55
M  V30 303 1 34 56
M  V30 304 1 34 57
M  V30 305 1 34 64
M  V30 306 1 34 65
M  V30 307 1 35 41
M  V30 308 1 35 43
M  V30 309 1 35 51
M  V30 310 1 35 52
M  V30 311 1 35 56
M  V30 312 1 35 57
M  V30 313 1 35 64
M  V30 314 1 35 65
M  V30 315 1 36 44
M  V30 316 1 36 45
M  V30 317 1 36 53
M  V30 318 1 36 66
M  V30 319 1 37 38
M  V30 320 1 37 46
M  V30 321 1 37 54
M  V30 322 1 37 55
M  V30 323 1 37 56
M  V30 324 1 38 40
M  V30 325 1 38 46
M  V30 326 1 38 55
M  V30 327 1 38 56
M  V30 328 1 38 57
M  V30 329 1 39 41
M  V30 330 1 39 47
M  V30 331 1 39 48
M  V30 332 1 39 49
M  V30 333 1 39 50
M  V30 334 1 39 51
M  V30 335 1 39 64
M  V30 336 1 39 69
M  V30 337 1 39 70
M  V30 338 1 39 71
M  V30 339 1 40 56
M  V30 340 1 40 57
M  V30 341 1 41 43
M  V30 342 1 41 48
M  V30 343 1 41 50
M  V30 344 1 41 51
M  V30 345 1 41 52
M  V30 346 1 41 64
M  V30 347 1 41 65
M  V30 348 1 41 70
M  V30 349 1 41 71
M  V30 350 1 41 72
M  V30 351 1 43 51
M  V30 352 1 43 52
M  V30 353 1 43 64
M  V30 354 1 43 65
M  V30 355 1 43 71
M  V30 356 1 43 72
M  V30 357 1 44 45
M  V30 358 1 44 53
M  V30 359 1 44 66
M  V30 360 1 44 73
M  V30 361 1 45 53
M  V30 362 1 45 66
M  V30 363 1 45 67
M  V30 364 1 45 73
M  V30 365 1 45 74
M  V30 366 1 46 49
M  V30 367 1 46 50
M  V30 368 1 46 51
M  V30 369 1 46 54
M  V30 370 1 46 55
M  V30 371 1 46 56
M  V30 372 1 47 48
M  V30 373 1 47 67
M  V30 374 1 47 69
M  V30 375 1 47 70
M  V30 376 1 47 74
M  V30 377 1 47 75
M  V30 378 1 48 49
M  V30 379 1 48 50
M  V30 380 1 48 51
M  V30 381 1 48 64
M  V30 382 1 48 69
M  V30 383 1 48 70
M  V30 384 1 48 71
M  V30 385 1 48 86
M  V30 386 1 48 87
M  V30 387 1 48 92
M  V30 388 1 48 93
M  V30 389 1 48 102
M  V30 390 1 49 50
M  V30 391 1 49 54
M  V30 392 1 49 55
M  V30 393 1 49 58
M  V30 394 1 49 82
M  V30 395 1 49 85
M  V30 396 1 49 86
M  V30 397 1 50 51
M  V30 398 1 50 54
M  V30 399 1 50 55
M  V30 400 1 50 56
M  V30 401 1 50 58
M  V30 402 1 50 64
M  V30 403 1 50 82
M  V30 404 1 50 83
M  V30 405 1 50 86
M  V30 406 1 50 87
M  V30 407 1 50 102
M  V30 408 1 51 52
M  V30 409 1 51 55
M  V30 410 1 51 56
M  V30 411 1 51 57
M  V30 412 1 51 64
M  V30 413 1 51 65
M  V30 414 1 51 82
M  V30 415 1 51 83
M  V30 416 1 51 84
M  V30 417 1 51 86
M  V30 418 1 51 87
M  V30 419 1 51 88
M  V30 420 1 51 102
M  V30 421 1 51 103
M  V30 422 1 52 56
M  V30 423 1 52 57
M  V30 424 1 52 64
M  V30 425 1 52 65
M  V30 426 1 52 83
M  V30 427 1 52 84
M  V30 428 1 52 87
M  V30 429 1 52 88
M  V30 430 1 52 102
M  V30 431 1 52 103
M  V30 432 1 53 66
M  V30 433 1 53 67
M  V30 434 1 53 85
M  V30 435 1 53 91
M  V30 436 1 53 99
M  V30 437 1 53 100
M  V30 438 1 53 105
M  V30 439 1 54 55
M  V30 440 1 54 58
M  V30 441 1 54 59
M  V30 442 1 54 60
M  V30 443 1 54 61
M  V30 444 1 54 82
M  V30 445 1 54 85
M  V30 446 1 54 86
M  V30 447 1 55 56
M  V30 448 1 55 58
M  V30 449 1 55 60
M  V30 450 1 55 61
M  V30 451 1 55 62
M  V30 452 1 55 82
M  V30 453 1 55 83
M  V30 454 1 55 86
M  V30 455 1 55 87
M  V30 456 1 56 57
M  V30 457 1 56 61
M  V30 458 1 56 62
M  V30 459 1 56 63
M  V30 460 1 56 82
M  V30 461 1 56 83
M  V30 462 1 56 84
M  V30 463 1 56 86
M  V30 464 1 56 87
M  V30 465 1 56 88
M  V30 466 1 57 62
M  V30 467 1 57 63
M  V30 468 1 57 83
M  V30 469 1 57 84
M  V30 470 1 57 87
M  V30 471 1 57 88
M  V30 472 1 58 59
M  V30 473 1 58 60
M  V30 474 1 58 61
M  V30 475 1 58 82
M  V30 476 1 58 85
M  V30 477 1 58 86
M  V30 478 1 58 108
M  V30 479 1 58 110
M  V30 480 1 58 111
M  V30 481 1 58 118
M  V30 482 1 58 120
M  V30 483 1 58 122
M  V30 484 1 58 128
M  V30 485 1 58 130
M  V30 486 1 58 132
M  V30 487 1 59 60
M  V30 488 1 59 76
M  V30 489 1 59 89
M  V30 490 1 59 107
M  V30 491 1 59 116
M  V30 492 1 59 118
M  V30 493 1 59 120
M  V30 494 1 59 128
M  V30 495 1 59 130
M  V30 496 1 60 61
M  V30 497 1 60 76
M  V30 498 1 60 78
M  V30 499 1 60 82
M  V30 500 1 60 89
M  V30 501 1 60 107
M  V30 502 1 60 109
M  V30 503 1 60 118
M  V30 504 1 60 120
M  V30 505 1 60 122
M  V30 506 1 60 128
M  V30 507 1 60 130
M  V30 508 1 60 132
M  V30 509 1 61 62
M  V30 510 1 61 76
M  V30 511 1 61 78
M  V30 512 1 61 82
M  V30 513 1 61 83
M  V30 514 1 61 107
M  V30 515 1 61 109
M  V30 516 1 61 120
M  V30 517 1 61 122
M  V30 518 1 61 123
M  V30 519 1 61 130
M  V30 520 1 61 132
M  V30 521 1 61 134
M  V30 522 1 62 63
M  V30 523 1 62 78
M  V30 524 1 62 80
M  V30 525 1 62 82
M  V30 526 1 62 83
M  V30 527 1 62 84
M  V30 528 1 62 109
M  V30 529 1 62 112
M  V30 530 1 62 122
M  V30 531 1 62 123
M  V30 532 1 62 125
M  V30 533 1 62 132
M  V30 534 1 62 134
M  V30 535 1 62 136
M  V30 536 1 63 80
M  V30 537 1 63 83
M  V30 538 1 63 84
M  V30 539 1 63 112
M  V30 540 1 63 123
M  V30 541 1 63 125
M  V30 542 1 63 134
M  V30 543 1 63 136
M  V30 544 1 64 65
M  V30 545 1 64 70
M  V30 546 1 64 71
M  V30 547 1 64 72
M  V30 548 1 64 86
M  V30 549 1 64 87
M  V30 550 1 64 88
M  V30 551 1 64 92
M  V30 552 1 64 93
M  V30 553 1 64 94
M  V30 554 1 64 102
M  V30 555 1 64 103
M  V30 556 1 65 71
M  V30 557 1 65 72
M  V30 558 1 65 87
M  V30 559 1 65 88
M  V30 560 1 65 93
M  V30 561 1 65 94
M  V30 562 1 65 102
M  V30 563 1 65 103
M  V30 564 1 66 67
M  V30 565 1 66 73
M  V30 566 1 66 74
M  V30 567 1 66 91
M  V30 568 1 66 95
M  V30 569 1 66 99
M  V30 570 1 66 100
M  V30 571 1 66 105
M  V30 572 1 67 69
M  V30 573 1 67 73
M  V30 574 1 67 74
M  V30 575 1 67 75
M  V30 576 1 67 91
M  V30 577 1 67 95
M  V30 578 1 67 100
M  V30 579 1 67 105
M  V30 580 1 68 81
M  V30 581 1 68 90
M  V30 582 1 68 101
M  V30 583 1 69 70
M  V30 584 1 69 74
M  V30 585 1 69 75
M  V30 586 1 69 91
M  V30 587 1 69 92
M  V30 588 1 69 95
M  V30 589 1 69 96
M  V30 590 1 70 71
M  V30 591 1 70 75
M  V30 592 1 70 77
M  V30 593 1 70 92
M  V30 594 1 70 93
M  V30 595 1 70 96
M  V30 596 1 70 97
M  V30 597 1 70 102
M  V30 598 1 71 72
M  V30 599 1 71 77
M  V30 600 1 71 79
M  V30 601 1 71 92
M  V30 602 1 71 93
M  V30 603 1 71 94
M  V30 604 1 71 96
M  V30 605 1 71 97
M  V30 606 1 71 98
M  V30 607 1 71 102
M  V30 608 1 71 103
M  V30 609 1 72 77
M  V30 610 1 72 79
M  V30 611 1 72 93
M  V30 612 1 72 94
M  V30 613 1 72 97
M  V30 614 1 72 98
M  V30 615 1 72 102
M  V30 616 1 72 103
M  V30 617 1 73 74
M  V30 618 1 73 81
M  V30 619 1 73 91
M  V30 620 1 73 95
M  V30 621 1 73 101
M  V30 622 1 73 105
M  V30 623 1 74 75
M  V30 624 1 74 81
M  V30 625 1 74 91
M  V30 626 1 74 95
M  V30 627 1 74 101
M  V30 628 1 74 105
M  V30 629 1 75 91
M  V30 630 1 75 92
M  V30 631 1 75 95
M  V30 632 1 75 96
M  V30 633 1 76 78
M  V30 634 1 76 89
M  V30 635 1 76 107
M  V30 636 1 76 109
M  V30 637 1 76 118
M  V30 638 1 76 120
M  V30 639 1 76 122
M  V30 640 1 77 79
M  V30 641 1 77 92
M  V30 642 1 77 93
M  V30 643 1 77 94
M  V30 644 1 77 96
M  V30 645 1 77 97
M  V30 646 1 77 98
M  V30 647 1 77 104
M  V30 648 1 78 107
M  V30 649 1 78 109
M  V30 650 1 78 120
M  V30 651 1 78 122
M  V30 652 1 78 123
M  V30 653 1 79 93
M  V30 654 1 79 94
M  V30 655 1 79 97
M  V30 656 1 79 98
M  V30 657 1 79 104
M  V30 658 1 80 112
M  V30 659 1 80 123
M  V30 660 1 80 125
M  V30 661 1 81 90
M  V30 662 1 81 95
M  V30 663 1 81 101
M  V30 664 1 82 83
M  V30 665 1 82 86
M  V30 666 1 82 87
M  V30 667 1 82 110
M  V30 668 1 82 111
M  V30 669 1 82 113
M  V30 670 1 82 120
M  V30 671 1 82 122
M  V30 672 1 82 123
M  V30 673 1 82 130
M  V30 674 1 82 132
M  V30 675 1 82 134
M  V30 676 1 83 84
M  V30 677 1 83 86
M  V30 678 1 83 87
M  V30 679 1 83 88
M  V30 680 1 83 111
M  V30 681 1 83 113
M  V30 682 1 83 114
M  V30 683 1 83 122
M  V30 684 1 83 123
M  V30 685 1 83 125
M  V30 686 1 83 132
M  V30 687 1 83 134
M  V30 688 1 83 136
M  V30 689 1 84 87
M  V30 690 1 84 88
M  V30 691 1 84 113
M  V30 692 1 84 114
M  V30 693 1 84 123
M  V30 694 1 84 125
M  V30 695 1 84 134
M  V30 696 1 84 136
M  V30 697 1 85 100
M  V30 698 1 85 106
M  V30 699 1 85 108
M  V30 700 1 85 110
M  V30 701 1 85 119
M  V30 702 1 85 121
M  V30 703 1 85 128
M  V30 704 1 85 130
M  V30 705 1 86 87
M  V30 706 1 86 102
M  V30 707 1 86 110
M  V30 708 1 86 111
M  V30 709 1 86 113
M  V30 710 1 86 124
M  V30 711 1 86 126
M  V30 712 1 86 130
M  V30 713 1 86 132
M  V30 714 1 86 134
M  V30 715 1 87 88
M  V30 716 1 87 102
M  V30 717 1 87 103
M  V30 718 1 87 111
M  V30 719 1 87 113
M  V30 720 1 87 114
M  V30 721 1 87 124
M  V30 722 1 87 126
M  V30 723 1 87 127
M  V30 724 1 87 132
M  V30 725 1 87 134
M  V30 726 1 87 136
M  V30 727 1 88 102
M  V30 728 1 88 103
M  V30 729 1 88 113
M  V30 730 1 88 114
M  V30 731 1 88 126
M  V30 732 1 88 127
M  V30 733 1 88 134
M  V30 734 1 88 136
M  V30 735 1 89 107
M  V30 736 1 89 116
M  V30 737 1 89 118
M  V30 738 1 89 120
M  V30 739 1 89 161
M  V30 740 1 89 162
M  V30 741 1 89 164
M  V30 742 1 89 188
M  V30 743 1 89 190
M  V30 744 1 89 192
M  V30 745 1 90 101
M  V30 746 1 90 142
M  V30 747 1 90 160
M  V30 748 1 90 172
M  V30 749 1 90 174
M  V30 750 1 91 95
M  V30 751 1 91 100
M  V30 752 1 91 105
M  V30 753 1 91 119
M  V30 754 1 91 121
M  V30 755 1 91 129
M  V30 756 1 91 131
M  V30 757 1 91 133
M  V30 758 1 91 143
M  V30 759 1 91 144
M  V30 760 1 91 145
M  V30 761 1 92 93
M  V30 762 1 92 96
M  V30 763 1 92 97
M  V30 764 1 92 102
M  V30 765 1 92 124
M  V30 766 1 92 126
M  V30 767 1 92 133
M  V30 768 1 92 135
M  V30 769 1 92 137
M  V30 770 1 92 145
M  V30 771 1 92 146
M  V30 772 1 92 147
M  V30 773 1 93 94
M  V30 774 1 93 96
M  V30 775 1 93 97
M  V30 776 1 93 98
M  V30 777 1 93 102
M  V30 778 1 93 103
M  V30 779 1 93 124
M  V30 780 1 93 126
M  V30 781 1 93 127
M  V30 782 1 93 135
M  V30 783 1 93 137
M  V30 784 1 93 139
M  V30 785 1 93 146
M  V30 786 1 93 147
M  V30 787 1 93 148
M  V30 788 1 94 97
M  V30 789 1 94 98
M  V30 790 1 94 102
M  V30 791 1 94 103
M  V30 792 1 94 126
M  V30 793 1 94 127
M  V30 794 1 94 137
M  V30 795 1 94 139
M  V30 796 1 94 147
M  V30 797 1 94 148
M  V30 798 1 95 101
M  V30 799 1 95 105
M  V30 800 1 95 129
M  V30 801 1 95 131
M  V30 802 1 95 133
M  V30 803 1 95 142
M  V30 804 1 95 143
M  V30 805 1 95 144
M  V30 806 1 95 145
M  V30 807 1 95 160
M  V30 808 1 96 97
M  V30 809 1 96 133
M  V30 810 1 96 135
M  V30 811 1 96 137
M  V30 812 1 96 145
M  V30 813 1 96 146
M  V30 814 1 96 147
M  V30 815 1 96 163
M  V30 816 1 96 165
M  V30 817 1 97 98
M  V30 818 1 97 104
M  V30 819 1 97 135
M  V30 820 1 97 137
M  V30 821 1 97 139
M  V30 822 1 97 146
M  V30 823 1 97 147
M  V30 824 1 97 148
M  V30 825 1 97 163
M  V30 826 1 97 165
M  V30 827 1 97 167
M  V30 828 1 98 104
M  V30 829 1 98 137
M  V30 830 1 98 139
M  V30 831 1 98 147
M  V30 832 1 98 148
M  V30 833 1 98 165
M  V30 834 1 98 167
M  V30 835 1 99 100
M  V30 836 1 99 105
M  V30 837 1 99 106
M  V30 838 1 99 115
M  V30 839 1 99 117
M  V30 840 1 99 119
M  V30 841 1 99 129
M  V30 842 1 99 140
M  V30 843 1 99 141
M  V30 844 1 100 105
M  V30 845 1 100 106
M  V30 846 1 100 108
M  V30 847 1 100 117
M  V30 848 1 100 119
M  V30 849 1 100 121
M  V30 850 1 100 129
M  V30 851 1 100 131
M  V30 852 1 100 141
M  V30 853 1 101 142
M  V30 854 1 101 143
M  V30 855 1 101 144
M  V30 856 1 101 160
M  V30 857 1 101 172
M  V30 858 1 101 174
M  V30 859 1 102 103
M  V30 860 1 102 111
M  V30 861 1 102 113
M  V30 862 1 102 114
M  V30 863 1 102 124
M  V30 864 1 102 126
M  V30 865 1 102 127
M  V30 866 1 102 135
M  V30 867 1 102 137
M  V30 868 1 102 139
M  V30 869 1 103 113
M  V30 870 1 103 114
M  V30 871 1 103 126
M  V30 872 1 103 127
M  V30 873 1 103 137
M  V30 874 1 103 139
M  V30 875 1 104 147
M  V30 876 1 104 148
M  V30 877 1 104 165
M  V30 878 1 104 167
M  V30 879 1 104 178
M  V30 880 1 104 180
M  V30 881 1 105 117
M  V30 882 1 105 119
M  V30 883 1 105 121
M  V30 884 1 105 129
M  V30 885 1 105 131
M  V30 886 1 105 143
M  V30 887 1 105 144
M  V30 888 1 106 108
M  V30 889 1 106 117
M  V30 890 1 106 119
M  V30 891 1 106 121
M  V30 892 1 106 128
M  V30 893 1 106 141
M  V30 894 1 106 151
M  V30 895 1 106 152
M  V30 896 1 106 153
M  V30 897 1 106 173
M  V30 898 1 106 175
M  V30 899 1 106 176
M  V30 900 1 106 189
M  V30 901 1 106 191
M  V30 902 1 106 193
M  V30 903 1 107 109
M  V30 904 1 107 118
M  V30 905 1 107 120
M  V30 906 1 107 122
M  V30 907 1 107 162
M  V30 908 1 107 164
M  V30 909 1 107 166
M  V30 910 1 107 190
M  V30 911 1 107 192
M  V30 912 1 107 194
M  V30 913 1 108 110
M  V30 914 1 108 119
M  V30 915 1 108 121
M  V30 916 1 108 128
M  V30 917 1 108 130
M  V30 918 1 108 152
M  V30 919 1 108 153
M  V30 920 1 108 154
M  V30 921 1 108 175
M  V30 922 1 108 176
M  V30 923 1 108 177
M  V30 924 1 108 191
M  V30 925 1 108 193
M  V30 926 1 108 195
M  V30 927 1 109 120
M  V30 928 1 109 122
M  V30 929 1 109 123
M  V30 930 1 109 164
M  V30 931 1 109 166
M  V30 932 1 109 168
M  V30 933 1 109 192
M  V30 934 1 109 194
M  V30 935 1 109 196
M  V30 936 1 110 111
M  V30 937 1 110 121
M  V30 938 1 110 124
M  V30 939 1 110 128
M  V30 940 1 110 130
M  V30 941 1 110 132
M  V30 942 1 110 153
M  V30 943 1 110 154
M  V30 944 1 110 155
M  V30 945 1 110 176
M  V30 946 1 110 177
M  V30 947 1 110 179
M  V30 948 1 110 193
M  V30 949 1 110 195
M  V30 950 1 110 197
M  V30 951 1 111 113
M  V30 952 1 111 124
M  V30 953 1 111 126
M  V30 954 1 111 130
M  V30 955 1 111 132
M  V30 956 1 111 134
M  V30 957 1 111 154
M  V30 958 1 111 155
M  V30 959 1 111 156
M  V30 960 1 111 177
M  V30 961 1 111 179
M  V30 962 1 111 181
M  V30 963 1 111 195
M  V30 964 1 111 197
M  V30 965 1 111 199
M  V30 966 1 112 123
M  V30 967 1 112 125
M  V30 968 1 112 168
M  V30 969 1 112 169
M  V30 970 1 112 196
M  V30 971 1 112 198
M  V30 972 1 113 114
M  V30 973 1 113 124
M  V30 974 1 113 126
M  V30 975 1 113 127
M  V30 976 1 113 132
M  V30 977 1 113 134
M  V30 978 1 113 136
M  V30 979 1 113 155
M  V30 980 1 113 156
M  V30 981 1 113 157
M  V30 982 1 113 179
M  V30 983 1 113 181
M  V30 984 1 113 183
M  V30 985 1 113 197
M  V30 986 1 113 199
M  V30 987 1 113 201
M  V30 988 1 114 126
M  V30 989 1 114 127
M  V30 990 1 114 134
M  V30 991 1 114 136
M  V30 992 1 114 156
M  V30 993 1 114 157
M  V30 994 1 114 181
M  V30 995 1 114 183
M  V30 996 1 114 199
M  V30 997 1 114 201
M  V30 998 1 115 117
M  V30 999 1 115 138
M  V30 1000 1 115 140
M  V30 1001 1 115 141
M  V30 1002 1 115 149
M  V30 1003 1 115 150
M  V30 1004 1 115 151
M  V30 1005 1 115 158
M  V30 1006 1 115 185
M  V30 1007 1 115 187
M  V30 1008 1 115 189
M  V30 1009 1 115 202
M  V30 1010 1 116 118
M  V30 1011 1 116 128
M  V30 1012 1 116 159
M  V30 1013 1 116 161
M  V30 1014 1 116 162
M  V30 1015 1 116 173
M  V30 1016 1 116 175
M  V30 1017 1 116 176
M  V30 1018 1 116 186
M  V30 1019 1 116 188
M  V30 1020 1 116 190
M  V30 1021 1 117 119
M  V30 1022 1 117 129
M  V30 1023 1 117 140
M  V30 1024 1 117 141
M  V30 1025 1 117 149
M  V30 1026 1 117 150
M  V30 1027 1 117 151
M  V30 1028 1 117 152
M  V30 1029 1 117 158
M  V30 1030 1 117 187
M  V30 1031 1 117 189
M  V30 1032 1 117 191
M  V30 1033 1 117 203
M  V30 1034 1 118 120
M  V30 1035 1 118 128
M  V30 1036 1 118 130
M  V30 1037 1 118 161
M  V30 1038 1 118 162
M  V30 1039 1 118 164
M  V30 1040 1 118 175
M  V30 1041 1 118 176
M  V30 1042 1 118 177
M  V30 1043 1 118 188
M  V30 1044 1 118 190
M  V30 1045 1 118 192
M  V30 1046 1 119 121
M  V30 1047 1 119 129
M  V30 1048 1 119 131
M  V30 1049 1 119 141
M  V30 1050 1 119 149
M  V30 1051 1 119 151
M  V30 1052 1 119 152
M  V30 1053 1 119 153
M  V30 1054 1 119 189
M  V30 1055 1 119 191
M  V30 1056 1 119 193
M  V30 1057 1 119 203
M  V30 1058 1 119 205
M  V30 1059 1 120 122
M  V30 1060 1 120 128
M  V30 1061 1 120 130
M  V30 1062 1 120 132
M  V30 1063 1 120 162
M  V30 1064 1 120 164
M  V30 1065 1 120 166
M  V30 1066 1 120 176
M  V30 1067 1 120 177
M  V30 1068 1 120 179
M  V30 1069 1 120 190
M  V30 1070 1 120 192
M  V30 1071 1 120 194
M  V30 1072 1 121 129
M  V30 1073 1 121 131
M  V30 1074 1 121 133
M  V30 1075 1 121 152
M  V30 1076 1 121 153
M  V30 1077 1 121 154
M  V30 1078 1 121 191
M  V30 1079 1 121 193
M  V30 1080 1 121 195
M  V30 1081 1 121 203
M  V30 1082 1 121 205
M  V30 1083 1 121 207
M  V30 1084 1 122 123
M  V30 1085 1 122 130
M  V30 1086 1 122 132
M  V30 1087 1 122 134
M  V30 1088 1 122 164
M  V30 1089 1 122 166
M  V30 1090 1 122 168
M  V30 1091 1 122 177
M  V30 1092 1 122 179
M  V30 1093 1 122 181
M  V30 1094 1 122 192
M  V30 1095 1 122 194
M  V30 1096 1 122 196
M  V30 1097 1 123 125
M  V30 1098 1 123 132
M  V30 1099 1 123 134
M  V30 1100 1 123 136
M  V30 1101 1 123 166
M  V30 1102 1 123 168
M  V30 1103 1 123 169
M  V30 1104 1 123 179
M  V30 1105 1 123 181
M  V30 1106 1 123 183
M  V30 1107 1 123 194
M  V30 1108 1 123 196
M  V30 1109 1 123 198
M  V30 1110 1 124 126
M  V30 1111 1 124 133
M  V30 1112 1 124 135
M  V30 1113 1 124 137
M  V30 1114 1 124 154
M  V30 1115 1 124 155
M  V30 1116 1 124 156
M  V30 1117 1 124 195
M  V30 1118 1 124 197
M  V30 1119 1 124 199
M  V30 1120 1 124 207
M  V30 1121 1 124 208
M  V30 1122 1 124 209
M  V30 1123 1 125 134
M  V30 1124 1 125 136
M  V30 1125 1 125 168
M  V30 1126 1 125 169
M  V30 1127 1 125 181
M  V30 1128 1 125 183
M  V30 1129 1 125 196
M  V30 1130 1 125 198
M  V30 1131 1 126 127
M  V30 1132 1 126 135
M  V30 1133 1 126 137
M  V30 1134 1 126 139
M  V30 1135 1 126 155
M  V30 1136 1 126 156
M  V30 1137 1 126 157
M  V30 1138 1 126 197
M  V30 1139 1 126 199
M  V30 1140 1 126 201
M  V30 1141 1 126 208
M  V30 1142 1 126 209
M  V30 1143 1 126 210
M  V30 1144 1 127 137
M  V30 1145 1 127 139
M  V30 1146 1 127 156
M  V30 1147 1 127 157
M  V30 1148 1 127 199
M  V30 1149 1 127 201
M  V30 1150 1 127 209
M  V30 1151 1 127 210
M  V30 1152 1 128 130
M  V30 1153 1 128 161
M  V30 1154 1 128 162
M  V30 1155 1 128 164
M  V30 1156 1 128 175
M  V30 1157 1 128 176
M  V30 1158 1 128 177
M  V30 1159 1 128 191
M  V30 1160 1 128 193
M  V30 1161 1 128 195
M  V30 1162 1 129 131
M  V30 1163 1 129 143
M  V30 1164 1 129 144
M  V30 1165 1 129 149
M  V30 1166 1 129 151
M  V30 1167 1 129 152
M  V30 1168 1 129 153
M  V30 1169 1 129 203
M  V30 1170 1 129 205
M  V30 1171 1 129 211
M  V30 1172 1 129 212
M  V30 1173 1 129 213
M  V30 1174 1 130 132
M  V30 1175 1 130 162
M  V30 1176 1 130 164
M  V30 1177 1 130 166
M  V30 1178 1 130 176
M  V30 1179 1 130 177
M  V30 1180 1 130 179
M  V30 1181 1 130 193
M  V30 1182 1 130 195
M  V30 1183 1 130 197
M  V30 1184 1 131 133
M  V30 1185 1 131 143
M  V30 1186 1 131 144
M  V30 1187 1 131 145
M  V30 1188 1 131 152
M  V30 1189 1 131 153
M  V30 1190 1 131 154
M  V30 1191 1 131 203
M  V30 1192 1 131 205
M  V30 1193 1 131 207
M  V30 1194 1 131 212
M  V30 1195 1 131 213
M  V30 1196 1 131 214
M  V30 1197 1 132 134
M  V30 1198 1 132 164
M  V30 1199 1 132 166
M  V30 1200 1 132 168
M  V30 1201 1 132 177
M  V30 1202 1 132 179
M  V30 1203 1 132 181
M  V30 1204 1 132 195
M  V30 1205 1 132 197
M  V30 1206 1 132 199
M  V30 1207 1 133 135
M  V30 1208 1 133 144
M  V30 1209 1 133 145
M  V30 1210 1 133 146
M  V30 1211 1 133 153
M  V30 1212 1 133 154
M  V30 1213 1 133 155
M  V30 1214 1 133 205
M  V30 1215 1 133 207
M  V30 1216 1 133 208
M  V30 1217 1 133 213
M  V30 1218 1 133 214
M  V30 1219 1 133 215
M  V30 1220 1 134 136
M  V30 1221 1 134 166
M  V30 1222 1 134 168
M  V30 1223 1 134 169
M  V30 1224 1 134 179
M  V30 1225 1 134 181
M  V30 1226 1 134 183
M  V30 1227 1 134 197
M  V30 1228 1 134 199
M  V30 1229 1 134 201
M  V30 1230 1 135 137
M  V30 1231 1 135 145
M  V30 1232 1 135 146
M  V30 1233 1 135 147
M  V30 1234 1 135 154
M  V30 1235 1 135 155
M  V30 1236 1 135 156
M  V30 1237 1 135 207
M  V30 1238 1 135 208
M  V30 1239 1 135 209
M  V30 1240 1 135 214
M  V30 1241 1 135 215
M  V30 1242 1 135 216
M  V30 1243 1 136 168
M  V30 1244 1 136 169
M  V30 1245 1 136 181
M  V30 1246 1 136 183
M  V30 1247 1 136 199
M  V30 1248 1 136 201
M  V30 1249 1 137 139
M  V30 1250 1 137 146
M  V30 1251 1 137 147
M  V30 1252 1 137 148
M  V30 1253 1 137 155
M  V30 1254 1 137 156
M  V30 1255 1 137 157
M  V30 1256 1 137 208
M  V30 1257 1 137 209
M  V30 1258 1 137 210
M  V30 1259 1 137 215
M  V30 1260 1 137 216
M  V30 1261 1 137 217
M  V30 1262 1 138 140
M  V30 1263 1 138 150
M  V30 1264 1 138 170
M  V30 1265 1 138 171
M  V30 1266 1 138 185
M  V30 1267 1 138 187
M  V30 1268 1 138 202
M  V30 1269 1 139 147
M  V30 1270 1 139 148
M  V30 1271 1 139 156
M  V30 1272 1 139 157
M  V30 1273 1 139 209
M  V30 1274 1 139 210
M  V30 1275 1 139 216
M  V30 1276 1 139 217
M  V30 1277 1 140 141
M  V30 1278 1 140 150
M  V30 1279 1 140 151
M  V30 1280 1 140 170
M  V30 1281 1 140 171
M  V30 1282 1 140 173
M  V30 1283 1 140 185
M  V30 1284 1 140 187
M  V30 1285 1 140 189
M  V30 1286 1 140 202
M  V30 1287 1 141 150
M  V30 1288 1 141 151
M  V30 1289 1 141 152
M  V30 1290 1 141 171
M  V30 1291 1 141 173
M  V30 1292 1 141 175
M  V30 1293 1 141 187
M  V30 1294 1 141 189
M  V30 1295 1 141 191
M  V30 1296 1 142 143
M  V30 1297 1 142 144
M  V30 1298 1 142 160
M  V30 1299 1 142 172
M  V30 1300 1 142 174
M  V30 1301 1 142 204
M  V30 1302 1 142 206
M  V30 1303 1 142 211
M  V30 1304 1 142 212
M  V30 1305 1 142 213
M  V30 1306 1 142 219
M  V30 1307 1 142 220
M  V30 1308 1 142 221
M  V30 1309 1 142 237
M  V30 1310 1 143 144
M  V30 1311 1 143 149
M  V30 1312 1 143 160
M  V30 1313 1 143 203
M  V30 1314 1 143 205
M  V30 1315 1 143 211
M  V30 1316 1 143 212
M  V30 1317 1 143 213
M  V30 1318 1 143 219
M  V30 1319 1 143 220
M  V30 1320 1 143 221
M  V30 1321 1 144 145
M  V30 1322 1 144 160
M  V30 1323 1 144 203
M  V30 1324 1 144 205
M  V30 1325 1 144 207
M  V30 1326 1 144 212
M  V30 1327 1 144 213
M  V30 1328 1 144 214
M  V30 1329 1 144 220
M  V30 1330 1 144 221
M  V30 1331 1 144 222
M  V30 1332 1 145 146
M  V30 1333 1 145 160
M  V30 1334 1 145 163
M  V30 1335 1 145 205
M  V30 1336 1 145 207
M  V30 1337 1 145 208
M  V30 1338 1 145 213
M  V30 1339 1 145 214
M  V30 1340 1 145 215
M  V30 1341 1 145 221
M  V30 1342 1 145 222
M  V30 1343 1 145 223
M  V30 1344 1 146 147
M  V30 1345 1 146 163
M  V30 1346 1 146 165
M  V30 1347 1 146 207
M  V30 1348 1 146 208
M  V30 1349 1 146 209
M  V30 1350 1 146 214
M  V30 1351 1 146 215
M  V30 1352 1 146 216
M  V30 1353 1 146 222
M  V30 1354 1 146 223
M  V30 1355 1 146 224
M  V30 1356 1 147 148
M  V30 1357 1 147 163
M  V30 1358 1 147 165
M  V30 1359 1 147 167
M  V30 1360 1 147 208
M  V30 1361 1 147 209
M  V30 1362 1 147 210
M  V30 1363 1 147 215
M  V30 1364 1 147 216
M  V30 1365 1 147 217
M  V30 1366 1 147 223
M  V30 1367 1 147 224
M  V30 1368 1 147 225
M  V30 1369 1 148 165
M  V30 1370 1 148 167
M  V30 1371 1 148 209
M  V30 1372 1 148 210
M  V30 1373 1 148 216
M  V30 1374 1 148 217
M  V30 1375 1 148 224
M  V30 1376 1 148 225
M  V30 1377 1 149 150
M  V30 1378 1 149 151
M  V30 1379 1 149 152
M  V30 1380 1 149 158
M  V30 1381 1 149 203
M  V30 1382 1 149 211
M  V30 1383 1 149 212
M  V30 1384 1 149 270
M  V30 1385 1 149 272
M  V30 1386 1 149 283
M  V30 1387 1 149 284
M  V30 1388 1 149 286
M  V30 1389 1 149 298
M  V30 1390 1 149 300
M  V30 1391 1 149 302
M  V30 1392 1 150 151
M  V30 1393 1 150 158
M  V30 1394 1 150 185
M  V30 1395 1 150 187
M  V30 1396 1 150 189
M  V30 1397 1 150 202
M  V30 1398 1 150 227
M  V30 1399 1 150 236
M  V30 1400 1 150 268
M  V30 1401 1 150 281
M  V30 1402 1 150 283
M  V30 1403 1 150 284
M  V30 1404 1 150 298
M  V30 1405 1 150 300
M  V30 1406 1 151 152
M  V30 1407 1 151 158
M  V30 1408 1 151 187
M  V30 1409 1 151 189
M  V30 1410 1 151 191
M  V30 1411 1 151 203
M  V30 1412 1 151 227
M  V30 1413 1 151 268
M  V30 1414 1 151 269
M  V30 1415 1 151 283
M  V30 1416 1 151 284
M  V30 1417 1 151 286
M  V30 1418 1 151 298
M  V30 1419 1 151 300
M  V30 1420 1 151 302
M  V30 1421 1 152 153
M  V30 1422 1 152 189
M  V30 1423 1 152 191
M  V30 1424 1 152 193
M  V30 1425 1 152 203
M  V30 1426 1 152 205
M  V30 1427 1 152 268
M  V30 1428 1 152 269
M  V30 1429 1 152 271
M  V30 1430 1 152 284
M  V30 1431 1 152 286
M  V30 1432 1 152 288
M  V30 1433 1 152 300
M  V30 1434 1 152 302
M  V30 1435 1 152 304
M  V30 1436 1 153 154
M  V30 1437 1 153 191
M  V30 1438 1 153 193
M  V30 1439 1 153 195
M  V30 1440 1 153 203
M  V30 1441 1 153 205
M  V30 1442 1 153 207
M  V30 1443 1 153 269
M  V30 1444 1 153 271
M  V30 1445 1 153 273
M  V30 1446 1 153 286
M  V30 1447 1 153 288
M  V30 1448 1 153 290
M  V30 1449 1 153 302
M  V30 1450 1 153 304
M  V30 1451 1 153 306
M  V30 1452 1 154 155
M  V30 1453 1 154 193
M  V30 1454 1 154 195
M  V30 1455 1 154 197
M  V30 1456 1 154 205
M  V30 1457 1 154 207
M  V30 1458 1 154 208
M  V30 1459 1 154 271
M  V30 1460 1 154 273
M  V30 1461 1 154 275
M  V30 1462 1 154 288
M  V30 1463 1 154 290
M  V30 1464 1 154 292
M  V30 1465 1 154 304
M  V30 1466 1 154 306
M  V30 1467 1 154 308
M  V30 1468 1 155 156
M  V30 1469 1 155 195
M  V30 1470 1 155 197
M  V30 1471 1 155 199
M  V30 1472 1 155 207
M  V30 1473 1 155 208
M  V30 1474 1 155 209
M  V30 1475 1 155 273
M  V30 1476 1 155 275
M  V30 1477 1 155 277
M  V30 1478 1 155 290
M  V30 1479 1 155 292
M  V30 1480 1 155 294
M  V30 1481 1 155 306
M  V30 1482 1 155 308
M  V30 1483 1 155 309
M  V30 1484 1 156 157
M  V30 1485 1 156 197
M  V30 1486 1 156 199
M  V30 1487 1 156 201
M  V30 1488 1 156 208
M  V30 1489 1 156 209
M  V30 1490 1 156 210
M  V30 1491 1 156 275
M  V30 1492 1 156 277
M  V30 1493 1 156 279
M  V30 1494 1 156 292
M  V30 1495 1 156 294
M  V30 1496 1 156 296
M  V30 1497 1 156 308
M  V30 1498 1 156 309
M  V30 1499 1 156 310
M  V30 1500 1 157 199
M  V30 1501 1 157 201
M  V30 1502 1 157 209
M  V30 1503 1 157 210
M  V30 1504 1 157 277
M  V30 1505 1 157 279
M  V30 1506 1 157 294
M  V30 1507 1 157 296
M  V30 1508 1 157 309
M  V30 1509 1 157 310
M  V30 1510 1 158 202
M  V30 1511 1 158 211
M  V30 1512 1 158 270
M  V30 1513 1 158 281
M  V30 1514 1 158 283
M  V30 1515 1 158 284
M  V30 1516 1 158 298
M  V30 1517 1 158 300
M  V30 1518 1 159 161
M  V30 1519 1 159 171
M  V30 1520 1 159 173
M  V30 1521 1 159 175
M  V30 1522 1 159 184
M  V30 1523 1 159 186
M  V30 1524 1 159 188
M  V30 1525 1 159 228
M  V30 1526 1 159 229
M  V30 1527 1 159 230
M  V30 1528 1 159 242
M  V30 1529 1 159 243
M  V30 1530 1 159 244
M  V30 1531 1 159 250
M  V30 1532 1 159 251
M  V30 1533 1 159 252
M  V30 1534 1 160 172
M  V30 1535 1 160 174
M  V30 1536 1 160 206
M  V30 1537 1 160 212
M  V30 1538 1 160 213
M  V30 1539 1 160 214
M  V30 1540 1 160 220
M  V30 1541 1 160 221
M  V30 1542 1 160 222
M  V30 1543 1 160 237
M  V30 1544 1 160 238
M  V30 1545 1 161 162
M  V30 1546 1 161 173
M  V30 1547 1 161 175
M  V30 1548 1 161 176
M  V30 1549 1 161 186
M  V30 1550 1 161 188
M  V30 1551 1 161 190
M  V30 1552 1 161 229
M  V30 1553 1 161 230
M  V30 1554 1 161 231
M  V30 1555 1 161 243
M  V30 1556 1 161 244
M  V30 1557 1 161 245
M  V30 1558 1 161 251
M  V30 1559 1 161 252
M  V30 1560 1 161 253
M  V30 1561 1 162 164
M  V30 1562 1 162 175
M  V30 1563 1 162 176
M  V30 1564 1 162 177
M  V30 1565 1 162 188
M  V30 1566 1 162 190
M  V30 1567 1 162 192
M  V30 1568 1 162 230
M  V30 1569 1 162 231
M  V30 1570 1 162 232
M  V30 1571 1 162 244
M  V30 1572 1 162 245
M  V30 1573 1 162 246
M  V30 1574 1 162 252
M  V30 1575 1 162 253
M  V30 1576 1 162 254
M  V30 1577 1 163 165
M  V30 1578 1 163 178
M  V30 1579 1 163 214
M  V30 1580 1 163 215
M  V30 1581 1 163 216
M  V30 1582 1 163 222
M  V30 1583 1 163 223
M  V30 1584 1 163 224
M  V30 1585 1 163 238
M  V30 1586 1 163 239
M  V30 1587 1 163 240
M  V30 1588 1 164 166
M  V30 1589 1 164 176
M  V30 1590 1 164 177
M  V30 1591 1 164 179
M  V30 1592 1 164 190
M  V30 1593 1 164 192
M  V30 1594 1 164 194
M  V30 1595 1 164 231
M  V30 1596 1 164 232
M  V30 1597 1 164 233
M  V30 1598 1 164 245
M  V30 1599 1 164 246
M  V30 1600 1 164 247
M  V30 1601 1 164 253
M  V30 1602 1 164 254
M  V30 1603 1 164 255
M  V30 1604 1 165 167
M  V30 1605 1 165 178
M  V30 1606 1 165 180
M  V30 1607 1 165 215
M  V30 1608 1 165 216
M  V30 1609 1 165 217
M  V30 1610 1 165 223
M  V30 1611 1 165 224
M  V30 1612 1 165 225
M  V30 1613 1 165 239
M  V30 1614 1 165 240
M  V30 1615 1 166 168
M  V30 1616 1 166 177
M  V30 1617 1 166 179
M  V30 1618 1 166 181
M  V30 1619 1 166 192
M  V30 1620 1 166 194
M  V30 1621 1 166 196
M  V30 1622 1 166 232
M  V30 1623 1 166 233
M  V30 1624 1 166 234
M  V30 1625 1 166 246
M  V30 1626 1 166 247
M  V30 1627 1 166 248
M  V30 1628 1 166 254
M  V30 1629 1 166 255
M  V30 1630 1 166 256
M  V30 1631 1 167 178
M  V30 1632 1 167 180
M  V30 1633 1 167 216
M  V30 1634 1 167 217
M  V30 1635 1 167 224
M  V30 1636 1 167 225
M  V30 1637 1 167 240
M  V30 1638 1 168 169
M  V30 1639 1 168 179
M  V30 1640 1 168 181
M  V30 1641 1 168 183
M  V30 1642 1 168 194
M  V30 1643 1 168 196
M  V30 1644 1 168 198
M  V30 1645 1 168 233
M  V30 1646 1 168 234
M  V30 1647 1 168 235
M  V30 1648 1 168 247
M  V30 1649 1 168 248
M  V30 1650 1 168 249
M  V30 1651 1 168 255
M  V30 1652 1 168 256
M  V30 1653 1 168 257
M  V30 1654 1 169 181
M  V30 1655 1 169 183
M  V30 1656 1 169 196
M  V30 1657 1 169 198
M  V30 1658 1 169 234
M  V30 1659 1 169 235
M  V30 1660 1 169 248
M  V30 1661 1 169 249
M  V30 1662 1 169 256
M  V30 1663 1 169 257
M  V30 1664 1 170 171
M  V30 1665 1 170 185
M  V30 1666 1 170 187
M  V30 1667 1 170 200
M  V30 1668 1 170 227
M  V30 1669 1 170 228
M  V30 1670 1 170 236
M  V30 1671 1 170 250
M  V30 1672 1 171 173
M  V30 1673 1 171 185
M  V30 1674 1 171 187
M  V30 1675 1 171 189
M  V30 1676 1 171 200
M  V30 1677 1 171 227
M  V30 1678 1 171 228
M  V30 1679 1 171 229
M  V30 1680 1 171 236
M  V30 1681 1 171 250
M  V30 1682 1 171 251
M  V30 1683 1 171 268
M  V30 1684 1 172 174
M  V30 1685 1 172 204
M  V30 1686 1 172 206
M  V30 1687 1 172 219
M  V30 1688 1 172 220
M  V30 1689 1 172 221
M  V30 1690 1 172 237
M  V30 1691 1 173 175
M  V30 1692 1 173 187
M  V30 1693 1 173 189
M  V30 1694 1 173 191
M  V30 1695 1 173 227
M  V30 1696 1 173 228
M  V30 1697 1 173 229
M  V30 1698 1 173 230
M  V30 1699 1 173 250
M  V30 1700 1 173 251
M  V30 1701 1 173 252
M  V30 1702 1 173 268
M  V30 1703 1 173 269
M  V30 1704 1 174 206
M  V30 1705 1 174 220
M  V30 1706 1 174 221
M  V30 1707 1 174 222
M  V30 1708 1 174 237
M  V30 1709 1 174 238
M  V30 1710 1 175 176
M  V30 1711 1 175 189
M  V30 1712 1 175 191
M  V30 1713 1 175 193
M  V30 1714 1 175 229
M  V30 1715 1 175 230
M  V30 1716 1 175 231
M  V30 1717 1 175 251
M  V30 1718 1 175 252
M  V30 1719 1 175 253
M  V30 1720 1 175 268
M  V30 1721 1 175 269
M  V30 1722 1 175 271
M  V30 1723 1 176 177
M  V30 1724 1 176 191
M  V30 1725 1 176 193
M  V30 1726 1 176 195
M  V30 1727 1 176 230
M  V30 1728 1 176 231
M  V30 1729 1 176 232
M  V30 1730 1 176 252
M  V30 1731 1 176 253
M  V30 1732 1 176 254
M  V30 1733 1 176 269
M  V30 1734 1 176 271
M  V30 1735 1 176 273
M  V30 1736 1 177 179
M  V30 1737 1 177 193
M  V30 1738 1 177 195
M  V30 1739 1 177 197
M  V30 1740 1 177 231
M  V30 1741 1 177 232
M  V30 1742 1 177 233
M  V30 1743 1 177 253
M  V30 1744 1 177 254
M  V30 1745 1 177 255
M  V30 1746 1 177 271
M  V30 1747 1 177 273
M  V30 1748 1 177 275
M  V30 1749 1 178 180
M  V30 1750 1 178 223
M  V30 1751 1 178 224
M  V30 1752 1 178 225
M  V30 1753 1 178 239
M  V30 1754 1 178 240
M  V30 1755 1 179 181
M  V30 1756 1 179 195
M  V30 1757 1 179 197
M  V30 1758 1 179 199
M  V30 1759 1 179 232
M  V30 1760 1 179 233
M  V30 1761 1 179 234
M  V30 1762 1 179 254
M  V30 1763 1 179 255
M  V30 1764 1 179 256
M  V30 1765 1 179 273
M  V30 1766 1 179 275
M  V30 1767 1 179 277
M  V30 1768 1 180 224
M  V30 1769 1 180 225
M  V30 1770 1 180 240
M  V30 1771 1 181 183
M  V30 1772 1 181 197
M  V30 1773 1 181 199
M  V30 1774 1 181 201
M  V30 1775 1 181 233
M  V30 1776 1 181 234
M  V30 1777 1 181 235
M  V30 1778 1 181 255
M  V30 1779 1 181 256
M  V30 1780 1 181 257
M  V30 1781 1 181 275
M  V30 1782 1 181 277
M  V30 1783 1 181 279
M  V30 1784 1 182 184
M  V30 1785 1 182 200
M  V30 1786 1 182 241
M  V30 1787 1 182 242
M  V30 1788 1 182 250
M  V30 1789 1 183 199
M  V30 1790 1 183 201
M  V30 1791 1 183 234
M  V30 1792 1 183 235
M  V30 1793 1 183 256
M  V30 1794 1 183 257
M  V30 1795 1 183 277
M  V30 1796 1 183 279
M  V30 1797 1 184 186
M  V30 1798 1 184 200
M  V30 1799 1 184 241
M  V30 1800 1 184 242
M  V30 1801 1 184 243
M  V30 1802 1 184 250
M  V30 1803 1 184 251
M  V30 1804 1 185 187
M  V30 1805 1 185 202
M  V30 1806 1 185 227
M  V30 1807 1 185 228
M  V30 1808 1 185 236
M  V30 1809 1 185 281
M  V30 1810 1 185 283
M  V30 1811 1 186 188
M  V30 1812 1 186 242
M  V30 1813 1 186 243
M  V30 1814 1 186 244
M  V30 1815 1 186 250
M  V30 1816 1 186 251
M  V30 1817 1 186 252
M  V30 1818 1 187 189
M  V30 1819 1 187 202
M  V30 1820 1 187 227
M  V30 1821 1 187 228
M  V30 1822 1 187 229
M  V30 1823 1 187 236
M  V30 1824 1 187 268
M  V30 1825 1 187 281
M  V30 1826 1 187 283
M  V30 1827 1 187 284
M  V30 1828 1 188 190
M  V30 1829 1 188 243
M  V30 1830 1 188 244
M  V30 1831 1 188 245
M  V30 1832 1 188 251
M  V30 1833 1 188 252
M  V30 1834 1 188 253
M  V30 1835 1 189 191
M  V30 1836 1 189 227
M  V30 1837 1 189 228
M  V30 1838 1 189 229
M  V30 1839 1 189 230
M  V30 1840 1 189 268
M  V30 1841 1 189 269
M  V30 1842 1 189 283
M  V30 1843 1 189 284
M  V30 1844 1 189 286
M  V30 1845 1 190 192
M  V30 1846 1 190 244
M  V30 1847 1 190 245
M  V30 1848 1 190 246
M  V30 1849 1 190 252
M  V30 1850 1 190 253
M  V30 1851 1 190 254
M  V30 1852 1 191 193
M  V30 1853 1 191 229
M  V30 1854 1 191 230
M  V30 1855 1 191 231
M  V30 1856 1 191 268
M  V30 1857 1 191 269
M  V30 1858 1 191 271
M  V30 1859 1 191 284
M  V30 1860 1 191 286
M  V30 1861 1 191 288
M  V30 1862 1 192 194
M  V30 1863 1 192 245
M  V30 1864 1 192 246
M  V30 1865 1 192 247
M  V30 1866 1 192 253
M  V30 1867 1 192 254
M  V30 1868 1 192 255
M  V30 1869 1 193 195
M  V30 1870 1 193 230
M  V30 1871 1 193 231
M  V30 1872 1 193 232
M  V30 1873 1 193 269
M  V30 1874 1 193 271
M  V30 1875 1 193 273
M  V30 1876 1 193 286
M  V30 1877 1 193 288
M  V30 1878 1 193 290
M  V30 1879 1 194 196
M  V30 1880 1 194 246
M  V30 1881 1 194 247
M  V30 1882 1 194 248
M  V30 1883 1 194 254
M  V30 1884 1 194 255
M  V30 1885 1 194 256
M  V30 1886 1 195 197
M  V30 1887 1 195 231
M  V30 1888 1 195 232
M  V30 1889 1 195 233
M  V30 1890 1 195 271
M  V30 1891 1 195 273
M  V30 1892 1 195 275
M  V30 1893 1 195 288
M  V30 1894 1 195 290
M  V30 1895 1 195 292
M  V30 1896 1 196 198
M  V30 1897 1 196 247
M  V30 1898 1 196 248
M  V30 1899 1 196 249
M  V30 1900 1 196 255
M  V30 1901 1 196 256
M  V30 1902 1 196 257
M  V30 1903 1 197 199
M  V30 1904 1 197 232
M  V30 1905 1 197 233
M  V30 1906 1 197 234
M  V30 1907 1 197 273
M  V30 1908 1 197 275
M  V30 1909 1 197 277
M  V30 1910 1 197 290
M  V30 1911 1 197 292
M  V30 1912 1 197 294
M  V30 1913 1 198 248
M  V30 1914 1 198 249
M  V30 1915 1 198 256
M  V30 1916 1 198 257
M  V30 1917 1 199 201
M  V30 1918 1 199 233
M  V30 1919 1 199 234
M  V30 1920 1 199 235
M  V30 1921 1 199 275
M  V30 1922 1 199 277
M  V30 1923 1 199 279
M  V30 1924 1 199 292
M  V30 1925 1 199 294
M  V30 1926 1 199 296
M  V30 1927 1 200 228
M  V30 1928 1 200 241
M  V30 1929 1 200 242
M  V30 1930 1 200 250
M  V30 1931 1 201 234
M  V30 1932 1 201 235
M  V30 1933 1 201 277
M  V30 1934 1 201 279
M  V30 1935 1 201 294
M  V30 1936 1 201 296
M  V30 1937 1 202 227
M  V30 1938 1 202 236
M  V30 1939 1 202 281
M  V30 1940 1 202 283
M  V30 1941 1 202 298
M  V30 1942 1 203 205
M  V30 1943 1 203 211
M  V30 1944 1 203 212
M  V30 1945 1 203 213
M  V30 1946 1 203 270
M  V30 1947 1 203 272
M  V30 1948 1 203 274
M  V30 1949 1 203 284
M  V30 1950 1 203 286
M  V30 1951 1 203 288
M  V30 1952 1 203 300
M  V30 1953 1 203 302
M  V30 1954 1 203 304
M  V30 1955 1 204 206
M  V30 1956 1 204 218
M  V30 1957 1 204 219
M  V30 1958 1 204 220
M  V30 1959 1 204 285
M  V30 1960 1 204 287
M  V30 1961 1 204 289
M  V30 1962 1 204 301
M  V30 1963 1 204 303
M  V30 1964 1 204 305
M  V30 1965 1 205 207
M  V30 1966 1 205 212
M  V30 1967 1 205 213
M  V30 1968 1 205 214
M  V30 1969 1 205 272
M  V30 1970 1 205 274
M  V30 1971 1 205 276
M  V30 1972 1 205 286
M  V30 1973 1 205 288
M  V30 1974 1 205 290
M  V30 1975 1 205 302
M  V30 1976 1 205 304
M  V30 1977 1 205 306
M  V30 1978 1 206 219
M  V30 1979 1 206 220
M  V30 1980 1 206 221
M  V30 1981 1 206 237
M  V30 1982 1 206 287
M  V30 1983 1 206 289
M  V30 1984 1 206 291
M  V30 1985 1 206 303
M  V30 1986 1 206 305
M  V30 1987 1 206 307
M  V30 1988 1 207 208
M  V30 1989 1 207 213
M  V30 1990 1 207 214
M  V30 1991 1 207 215
M  V30 1992 1 207 274
M  V30 1993 1 207 276
M  V30 1994 1 207 278
M  V30 1995 1 207 288
M  V30 1996 1 207 290
M  V30 1997 1 207 292
M  V30 1998 1 207 304
M  V30 1999 1 207 306
M  V30 2000 1 207 308
M  V30 2001 1 208 209
M  V30 2002 1 208 214
M  V30 2003 1 208 215
M  V30 2004 1 208 216
M  V30 2005 1 208 276
M  V30 2006 1 208 278
M  V30 2007 1 208 280
M  V30 2008 1 208 290
M  V30 2009 1 208 292
M  V30 2010 1 208 294
M  V30 2011 1 208 306
M  V30 2012 1 208 308
M  V30 2013 1 208 309
M  V30 2014 1 209 210
M  V30 2015 1 209 215
M  V30 2016 1 209 216
M  V30 2017 1 209 217
M  V30 2018 1 209 278
M  V30 2019 1 209 280
M  V30 2020 1 209 282
M  V30 2021 1 209 292
M  V30 2022 1 209 294
M  V30 2023 1 209 296
M  V30 2024 1 209 308
M  V30 2025 1 209 309
M  V30 2026 1 209 310
M  V30 2027 1 210 216
M  V30 2028 1 210 217
M  V30 2029 1 210 280
M  V30 2030 1 210 282
M  V30 2031 1 210 294
M  V30 2032 1 210 296
M  V30 2033 1 210 309
M  V30 2034 1 210 310
M  V30 2035 1 211 212
M  V30 2036 1 211 218
M  V30 2037 1 211 219
M  V30 2038 1 211 220
M  V30 2039 1 211 270
M  V30 2040 1 211 272
M  V30 2041 1 211 285
M  V30 2042 1 211 287
M  V30 2043 1 211 289
M  V30 2044 1 211 298
M  V30 2045 1 211 300
M  V30 2046 1 211 302
M  V30 2047 1 212 213
M  V30 2048 1 212 219
M  V30 2049 1 212 220
M  V30 2050 1 212 221
M  V30 2051 1 212 270
M  V30 2052 1 212 272
M  V30 2053 1 212 274
M  V30 2054 1 212 287
M  V30 2055 1 212 289
M  V30 2056 1 212 291
M  V30 2057 1 212 300
M  V30 2058 1 212 302
M  V30 2059 1 212 304
M  V30 2060 1 213 214
M  V30 2061 1 213 220
M  V30 2062 1 213 221
M  V30 2063 1 213 222
M  V30 2064 1 213 272
M  V30 2065 1 213 274
M  V30 2066 1 213 276
M  V30 2067 1 213 289
M  V30 2068 1 213 291
M  V30 2069 1 213 293
M  V30 2070 1 213 302
M  V30 2071 1 213 304
M  V30 2072 1 213 306
M  V30 2073 1 214 215
M  V30 2074 1 214 221
M  V30 2075 1 214 222
M  V30 2076 1 214 223
M  V30 2077 1 214 274
M  V30 2078 1 214 276
M  V30 2079 1 214 278
M  V30 2080 1 214 291
M  V30 2081 1 214 293
M  V30 2082 1 214 295
M  V30 2083 1 214 304
M  V30 2084 1 214 306
M  V30 2085 1 214 308
M  V30 2086 1 215 216
M  V30 2087 1 215 222
M  V30 2088 1 215 223
M  V30 2089 1 215 224
M  V30 2090 1 215 276
M  V30 2091 1 215 278
M  V30 2092 1 215 280
M  V30 2093 1 215 293
M  V30 2094 1 215 295
M  V30 2095 1 215 297
M  V30 2096 1 215 306
M  V30 2097 1 215 308
M  V30 2098 1 215 309
M  V30 2099 1 216 217
M  V30 2100 1 216 223
M  V30 2101 1 216 224
M  V30 2102 1 216 225
M  V30 2103 1 216 278
M  V30 2104 1 216 280
M  V30 2105 1 216 282
M  V30 2106 1 216 295
M  V30 2107 1 216 297
M  V30 2108 1 216 308
M  V30 2109 1 216 309
M  V30 2110 1 216 310
M  V30 2111 1 217 224
M  V30 2112 1 217 225
M  V30 2113 1 217 280
M  V30 2114 1 217 282
M  V30 2115 1 217 297
M  V30 2116 1 217 309
M  V30 2117 1 217 310
M  V30 2118 1 218 219
M  V30 2119 1 218 226
M  V30 2120 1 218 270
M  V30 2121 1 218 285
M  V30 2122 1 218 287
M  V30 2123 1 218 299
M  V30 2124 1 218 301
M  V30 2125 1 218 303
M  V30 2126 1 219 220
M  V30 2127 1 219 270
M  V30 2128 1 219 272
M  V30 2129 1 219 285
M  V30 2130 1 219 287
M  V30 2131 1 219 289
M  V30 2132 1 219 301
M  V30 2133 1 219 303
M  V30 2134 1 219 305
M  V30 2135 1 220 221
M  V30 2136 1 220 237
M  V30 2137 1 220 270
M  V30 2138 1 220 272
M  V30 2139 1 220 274
M  V30 2140 1 220 287
M  V30 2141 1 220 289
M  V30 2142 1 220 291
M  V30 2143 1 220 303
M  V30 2144 1 220 305
M  V30 2145 1 220 307
M  V30 2146 1 221 222
M  V30 2147 1 221 237
M  V30 2148 1 221 238
M  V30 2149 1 221 272
M  V30 2150 1 221 274
M  V30 2151 1 221 276
M  V30 2152 1 221 289
M  V30 2153 1 221 291
M  V30 2154 1 221 293
M  V30 2155 1 221 305
M  V30 2156 1 221 307
M  V30 2157 1 222 223
M  V30 2158 1 222 237
M  V30 2159 1 222 238
M  V30 2160 1 222 239
M  V30 2161 1 222 274
M  V30 2162 1 222 276
M  V30 2163 1 222 278
M  V30 2164 1 222 291
M  V30 2165 1 222 293
M  V30 2166 1 222 295
M  V30 2167 1 222 307
M  V30 2168 1 223 224
M  V30 2169 1 223 238
M  V30 2170 1 223 239
M  V30 2171 1 223 240
M  V30 2172 1 223 276
M  V30 2173 1 223 278
M  V30 2174 1 223 280
M  V30 2175 1 223 293
M  V30 2176 1 223 295
M  V30 2177 1 223 297
M  V30 2178 1 224 225
M  V30 2179 1 224 239
M  V30 2180 1 224 240
M  V30 2181 1 224 278
M  V30 2182 1 224 280
M  V30 2183 1 224 282
M  V30 2184 1 224 295
M  V30 2185 1 224 297
M  V30 2186 1 225 240
M  V30 2187 1 225 280
M  V30 2188 1 225 282
M  V30 2189 1 225 297
M  V30 2190 1 226 285
M  V30 2191 1 226 299
M  V30 2192 1 226 301
M  V30 2193 1 227 228
M  V30 2194 1 227 229
M  V30 2195 1 227 236
M  V30 2196 1 227 268
M  V30 2197 1 227 281
M  V30 2198 1 227 283
M  V30 2199 1 227 284
M  V30 2200 1 227 322
M  V30 2201 1 227 323
M  V30 2202 1 227 324
M  V30 2203 1 227 332
M  V30 2204 1 227 334
M  V30 2205 1 227 335
M  V30 2206 1 227 349
M  V30 2207 1 227 351
M  V30 2208 1 227 352
M  V30 2209 1 228 229
M  V30 2210 1 228 236
M  V30 2211 1 228 250
M  V30 2212 1 228 251
M  V30 2213 1 228 258
M  V30 2214 1 228 268
M  V30 2215 1 228 311
M  V30 2216 1 228 312
M  V30 2217 1 228 332
M  V30 2218 1 228 334
M  V30 2219 1 228 335
M  V30 2220 1 228 349
M  V30 2221 1 228 351
M  V30 2222 1 228 352
M  V30 2223 1 229 230
M  V30 2224 1 229 250
M  V30 2225 1 229 251
M  V30 2226 1 229 252
M  V30 2227 1 229 268
M  V30 2228 1 229 269
M  V30 2229 1 229 311
M  V30 2230 1 229 312
M  V30 2231 1 229 313
M  V30 2232 1 229 334
M  V30 2233 1 229 335
M  V30 2234 1 229 337
M  V30 2235 1 229 351
M  V30 2236 1 229 352
M  V30 2237 1 229 353
M  V30 2238 1 230 231
M  V30 2239 1 230 251
M  V30 2240 1 230 252
M  V30 2241 1 230 253
M  V30 2242 1 230 268
M  V30 2243 1 230 269
M  V30 2244 1 230 271
M  V30 2245 1 230 312
M  V30 2246 1 230 313
M  V30 2247 1 230 335
M  V30 2248 1 230 337
M  V30 2249 1 230 339
M  V30 2250 1 230 352
M  V30 2251 1 230 353
M  V30 2252 1 230 355
M  V30 2253 1 231 232
M  V30 2254 1 231 252
M  V30 2255 1 231 253
M  V30 2256 1 231 254
M  V30 2257 1 231 269
M  V30 2258 1 231 271
M  V30 2259 1 231 273
M  V30 2260 1 231 313
M  V30 2261 1 231 337
M  V30 2262 1 231 339
M  V30 2263 1 231 341
M  V30 2264 1 231 353
M  V30 2265 1 231 355
M  V30 2266 1 231 357
M  V30 2267 1 232 233
M  V30 2268 1 232 253
M  V30 2269 1 232 254
M  V30 2270 1 232 255
M  V30 2271 1 232 271
M  V30 2272 1 232 273
M  V30 2273 1 232 275
M  V30 2274 1 232 326
M  V30 2275 1 232 339
M  V30 2276 1 232 341
M  V30 2277 1 232 343
M  V30 2278 1 232 355
M  V30 2279 1 232 357
M  V30 2280 1 232 359
M  V30 2281 1 233 234
M  V30 2282 1 233 254
M  V30 2283 1 233 255
M  V30 2284 1 233 256
M  V30 2285 1 233 273
M  V30 2286 1 233 275
M  V30 2287 1 233 277
M  V30 2288 1 233 326
M  V30 2289 1 233 328
M  V30 2290 1 233 341
M  V30 2291 1 233 343
M  V30 2292 1 233 345
M  V30 2293 1 233 357
M  V30 2294 1 233 359
M  V30 2295 1 233 361
M  V30 2296 1 234 235
M  V30 2297 1 234 255
M  V30 2298 1 234 256
M  V30 2299 1 234 257
M  V30 2300 1 234 275
M  V30 2301 1 234 277
M  V30 2302 1 234 279
M  V30 2303 1 234 321
M  V30 2304 1 234 326
M  V30 2305 1 234 328
M  V30 2306 1 234 330
M  V30 2307 1 234 343
M  V30 2308 1 234 345
M  V30 2309 1 234 347
M  V30 2310 1 234 359
M  V30 2311 1 234 361
M  V30 2312 1 235 256
M  V30 2313 1 235 257
M  V30 2314 1 235 277
M  V30 2315 1 235 279
M  V30 2316 1 235 321
M  V30 2317 1 235 328
M  V30 2318 1 235 330
M  V30 2319 1 235 345
M  V30 2320 1 235 347
M  V30 2321 1 235 361
M  V30 2322 1 236 281
M  V30 2323 1 236 283
M  V30 2324 1 236 322
M  V30 2325 1 236 323
M  V30 2326 1 236 332
M  V30 2327 1 236 334
M  V30 2328 1 236 349
M  V30 2329 1 236 351
M  V30 2330 1 237 238
M  V30 2331 1 237 289
M  V30 2332 1 237 291
M  V30 2333 1 237 293
M  V30 2334 1 237 305
M  V30 2335 1 237 307
M  V30 2336 1 238 239
M  V30 2337 1 238 291
M  V30 2338 1 238 293
M  V30 2339 1 238 295
M  V30 2340 1 238 307
M  V30 2341 1 239 240
M  V30 2342 1 239 293
M  V30 2343 1 239 295
M  V30 2344 1 239 297
M  V30 2345 1 240 295
M  V30 2346 1 240 297
M  V30 2347 1 241 242
M  V30 2348 1 241 250
M  V30 2349 1 241 258
M  V30 2350 1 241 259
M  V30 2351 1 241 260
M  V30 2352 1 241 311
M  V30 2353 1 242 243
M  V30 2354 1 242 250
M  V30 2355 1 242 251
M  V30 2356 1 242 258
M  V30 2357 1 242 259
M  V30 2358 1 242 260
M  V30 2359 1 242 261
M  V30 2360 1 242 311
M  V30 2361 1 242 312
M  V30 2362 1 243 244
M  V30 2363 1 243 250
M  V30 2364 1 243 251
M  V30 2365 1 243 252
M  V30 2366 1 243 260
M  V30 2367 1 243 261
M  V30 2368 1 243 262
M  V30 2369 1 243 311
M  V30 2370 1 243 312
M  V30 2371 1 243 313
M  V30 2372 1 244 245
M  V30 2373 1 244 251
M  V30 2374 1 244 252
M  V30 2375 1 244 253
M  V30 2376 1 244 261
M  V30 2377 1 244 262
M  V30 2378 1 244 263
M  V30 2379 1 244 312
M  V30 2380 1 244 313
M  V30 2381 1 245 246
M  V30 2382 1 245 252
M  V30 2383 1 245 253
M  V30 2384 1 245 254
M  V30 2385 1 245 262
M  V30 2386 1 245 263
M  V30 2387 1 245 264
M  V30 2388 1 245 313
M  V30 2389 1 246 247
M  V30 2390 1 246 253
M  V30 2391 1 246 254
M  V30 2392 1 246 255
M  V30 2393 1 246 263
M  V30 2394 1 246 264
M  V30 2395 1 246 265
M  V30 2396 1 246 326
M  V30 2397 1 247 248
M  V30 2398 1 247 254
M  V30 2399 1 247 255
M  V30 2400 1 247 256
M  V30 2401 1 247 264
M  V30 2402 1 247 265
M  V30 2403 1 247 266
M  V30 2404 1 247 326
M  V30 2405 1 247 328
M  V30 2406 1 248 249
M  V30 2407 1 248 255
M  V30 2408 1 248 256
M  V30 2409 1 248 257
M  V30 2410 1 248 265
M  V30 2411 1 248 266
M  V30 2412 1 248 267
M  V30 2413 1 248 326
M  V30 2414 1 248 328
M  V30 2415 1 248 330
M  V30 2416 1 249 256
M  V30 2417 1 249 257
M  V30 2418 1 249 266
M  V30 2419 1 249 267
M  V30 2420 1 249 328
M  V30 2421 1 249 330
M  V30 2422 1 250 251
M  V30 2423 1 250 258
M  V30 2424 1 250 259
M  V30 2425 1 250 260
M  V30 2426 1 250 261
M  V30 2427 1 250 311
M  V30 2428 1 250 312
M  V30 2429 1 250 332
M  V30 2430 1 250 334
M  V30 2431 1 250 335
M  V30 2432 1 251 252
M  V30 2433 1 251 260
M  V30 2434 1 251 261
M  V30 2435 1 251 262
M  V30 2436 1 251 311
M  V30 2437 1 251 312
M  V30 2438 1 251 313
M  V30 2439 1 251 334
M  V30 2440 1 251 335
M  V30 2441 1 251 337
M  V30 2442 1 252 253
M  V30 2443 1 252 261
M  V30 2444 1 252 262
M  V30 2445 1 252 263
M  V30 2446 1 252 312
M  V30 2447 1 252 313
M  V30 2448 1 252 335
M  V30 2449 1 252 337
M  V30 2450 1 252 339
M  V30 2451 1 253 254
M  V30 2452 1 253 262
M  V30 2453 1 253 263
M  V30 2454 1 253 264
M  V30 2455 1 253 313
M  V30 2456 1 253 337
M  V30 2457 1 253 339
M  V30 2458 1 253 341
M  V30 2459 1 254 255
M  V30 2460 1 254 263
M  V30 2461 1 254 264
M  V30 2462 1 254 265
M  V30 2463 1 254 326
M  V30 2464 1 254 339
M  V30 2465 1 254 341
M  V30 2466 1 254 343
M  V30 2467 1 255 256
M  V30 2468 1 255 264
M  V30 2469 1 255 265
M  V30 2470 1 255 266
M  V30 2471 1 255 326
M  V30 2472 1 255 328
M  V30 2473 1 255 341
M  V30 2474 1 255 343
M  V30 2475 1 255 345
M  V30 2476 1 256 257
M  V30 2477 1 256 265
M  V30 2478 1 256 266
M  V30 2479 1 256 267
M  V30 2480 1 256 326
M  V30 2481 1 256 328
M  V30 2482 1 256 330
M  V30 2483 1 256 343
M  V30 2484 1 256 345
M  V30 2485 1 256 347
M  V30 2486 1 257 266
M  V30 2487 1 257 267
M  V30 2488 1 257 328
M  V30 2489 1 257 330
M  V30 2490 1 257 345
M  V30 2491 1 257 347
M  V30 2492 1 258 259
M  V30 2493 1 258 260
M  V30 2494 1 258 311
M  V30 2495 1 258 332
M  V30 2496 1 258 334
M  V30 2497 1 258 365
M  V30 2498 1 258 367
M  V30 2499 1 258 371
M  V30 2500 1 258 373
M  V30 2501 1 258 379
M  V30 2502 1 258 380
M  V30 2503 1 259 260
M  V30 2504 1 259 311
M  V30 2505 1 259 371
M  V30 2506 1 259 373
M  V30 2507 1 259 379
M  V30 2508 1 259 380
M  V30 2509 1 260 261
M  V30 2510 1 260 311
M  V30 2511 1 260 312
M  V30 2512 1 260 371
M  V30 2513 1 260 373
M  V30 2514 1 260 374
M  V30 2515 1 260 379
M  V30 2516 1 260 380
M  V30 2517 1 260 381
M  V30 2518 1 261 262
M  V30 2519 1 261 311
M  V30 2520 1 261 312
M  V30 2521 1 261 313
M  V30 2522 1 261 373
M  V30 2523 1 261 374
M  V30 2524 1 261 380
M  V30 2525 1 261 381
M  V30 2526 1 262 263
M  V30 2527 1 262 312
M  V30 2528 1 262 313
M  V30 2529 1 262 374
M  V30 2530 1 262 381
M  V30 2531 1 263 264
M  V30 2532 1 263 313
M  V30 2533 1 264 265
M  V30 2534 1 264 326
M  V30 2535 1 265 266
M  V30 2536 1 265 326
M  V30 2537 1 265 328
M  V30 2538 1 265 363
M  V30 2539 1 265 377
M  V30 2540 1 266 267
M  V30 2541 1 266 326
M  V30 2542 1 266 328
M  V30 2543 1 266 330
M  V30 2544 1 266 363
M  V30 2545 1 266 364
M  V30 2546 1 266 377
M  V30 2547 1 266 378
M  V30 2548 1 267 328
M  V30 2549 1 267 330
M  V30 2550 1 267 363
M  V30 2551 1 267 364
M  V30 2552 1 267 377
M  V30 2553 1 267 378
M  V30 2554 1 268 269
M  V30 2555 1 268 283
M  V30 2556 1 268 284
M  V30 2557 1 268 286
M  V30 2558 1 268 323
M  V30 2559 1 268 324
M  V30 2560 1 268 334
M  V30 2561 1 268 335
M  V30 2562 1 268 337
M  V30 2563 1 268 351
M  V30 2564 1 268 352
M  V30 2565 1 268 353
M  V30 2566 1 269 271
M  V30 2567 1 269 284
M  V30 2568 1 269 286
M  V30 2569 1 269 288
M  V30 2570 1 269 324
M  V30 2571 1 269 325
M  V30 2572 1 269 335
M  V30 2573 1 269 337
M  V30 2574 1 269 339
M  V30 2575 1 269 352
M  V30 2576 1 269 353
M  V30 2577 1 269 355
M  V30 2578 1 270 272
M  V30 2579 1 270 285
M  V30 2580 1 270 287
M  V30 2581 1 270 289
M  V30 2582 1 270 298
M  V30 2583 1 270 300
M  V30 2584 1 270 302
M  V30 2585 1 270 317
M  V30 2586 1 270 318
M  V30 2587 1 270 336
M  V30 2588 1 270 338
M  V30 2589 1 270 340
M  V30 2590 1 270 354
M  V30 2591 1 270 356
M  V30 2592 1 271 273
M  V30 2593 1 271 286
M  V30 2594 1 271 288
M  V30 2595 1 271 290
M  V30 2596 1 271 325
M  V30 2597 1 271 327
M  V30 2598 1 271 337
M  V30 2599 1 271 339
M  V30 2600 1 271 341
M  V30 2601 1 271 353
M  V30 2602 1 271 355
M  V30 2603 1 271 357
M  V30 2604 1 272 274
M  V30 2605 1 272 287
M  V30 2606 1 272 289
M  V30 2607 1 272 291
M  V30 2608 1 272 300
M  V30 2609 1 272 302
M  V30 2610 1 272 304
M  V30 2611 1 272 317
M  V30 2612 1 272 318
M  V30 2613 1 272 319
M  V30 2614 1 272 338
M  V30 2615 1 272 340
M  V30 2616 1 272 342
M  V30 2617 1 272 354
M  V30 2618 1 272 356
M  V30 2619 1 272 358
M  V30 2620 1 273 275
M  V30 2621 1 273 288
M  V30 2622 1 273 290
M  V30 2623 1 273 292
M  V30 2624 1 273 325
M  V30 2625 1 273 327
M  V30 2626 1 273 329
M  V30 2627 1 273 339
M  V30 2628 1 273 341
M  V30 2629 1 273 343
M  V30 2630 1 273 355
M  V30 2631 1 273 357
M  V30 2632 1 273 359
M  V30 2633 1 274 276
M  V30 2634 1 274 289
M  V30 2635 1 274 291
M  V30 2636 1 274 293
M  V30 2637 1 274 302
M  V30 2638 1 274 304
M  V30 2639 1 274 306
M  V30 2640 1 274 318
M  V30 2641 1 274 319
M  V30 2642 1 274 340
M  V30 2643 1 274 342
M  V30 2644 1 274 344
M  V30 2645 1 274 356
M  V30 2646 1 274 358
M  V30 2647 1 274 360
M  V30 2648 1 275 277
M  V30 2649 1 275 290
M  V30 2650 1 275 292
M  V30 2651 1 275 294
M  V30 2652 1 275 327
M  V30 2653 1 275 329
M  V30 2654 1 275 331
M  V30 2655 1 275 341
M  V30 2656 1 275 343
M  V30 2657 1 275 345
M  V30 2658 1 275 357
M  V30 2659 1 275 359
M  V30 2660 1 275 361
M  V30 2661 1 276 278
M  V30 2662 1 276 291
M  V30 2663 1 276 293
M  V30 2664 1 276 295
M  V30 2665 1 276 304
M  V30 2666 1 276 306
M  V30 2667 1 276 308
M  V30 2668 1 276 319
M  V30 2669 1 276 320
M  V30 2670 1 276 342
M  V30 2671 1 276 344
M  V30 2672 1 276 346
M  V30 2673 1 276 358
M  V30 2674 1 276 360
M  V30 2675 1 276 362
M  V30 2676 1 277 279
M  V30 2677 1 277 292
M  V30 2678 1 277 294
M  V30 2679 1 277 296
M  V30 2680 1 277 321
M  V30 2681 1 277 329
M  V30 2682 1 277 331
M  V30 2683 1 277 333
M  V30 2684 1 277 343
M  V30 2685 1 277 345
M  V30 2686 1 277 347
M  V30 2687 1 277 359
M  V30 2688 1 277 361
M  V30 2689 1 278 280
M  V30 2690 1 278 293
M  V30 2691 1 278 295
M  V30 2692 1 278 297
M  V30 2693 1 278 306
M  V30 2694 1 278 308
M  V30 2695 1 278 309
M  V30 2696 1 278 315
M  V30 2697 1 278 320
M  V30 2698 1 278 344
M  V30 2699 1 278 346
M  V30 2700 1 278 348
M  V30 2701 1 278 360
M  V30 2702 1 278 362
M  V30 2703 1 279 294
M  V30 2704 1 279 296
M  V30 2705 1 279 321
M  V30 2706 1 279 331
M  V30 2707 1 279 333
M  V30 2708 1 279 345
M  V30 2709 1 279 347
M  V30 2710 1 279 361
M  V30 2711 1 280 282
M  V30 2712 1 280 295
M  V30 2713 1 280 297
M  V30 2714 1 280 308
M  V30 2715 1 280 309
M  V30 2716 1 280 310
M  V30 2717 1 280 314
M  V30 2718 1 280 315
M  V30 2719 1 280 316
M  V30 2720 1 280 320
M  V30 2721 1 280 346
M  V30 2722 1 280 348
M  V30 2723 1 280 350
M  V30 2724 1 280 362
M  V30 2725 1 281 283
M  V30 2726 1 281 298
M  V30 2727 1 281 322
M  V30 2728 1 281 323
M  V30 2729 1 281 336
M  V30 2730 1 281 349
M  V30 2731 1 281 351
M  V30 2732 1 282 297
M  V30 2733 1 282 309
M  V30 2734 1 282 310
M  V30 2735 1 282 314
M  V30 2736 1 282 315
M  V30 2737 1 282 316
M  V30 2738 1 282 348
M  V30 2739 1 282 350
M  V30 2740 1 283 284
M  V30 2741 1 283 298
M  V30 2742 1 283 300
M  V30 2743 1 283 322
M  V30 2744 1 283 323
M  V30 2745 1 283 324
M  V30 2746 1 283 336
M  V30 2747 1 283 338
M  V30 2748 1 283 349
M  V30 2749 1 283 351
M  V30 2750 1 283 352
M  V30 2751 1 284 286
M  V30 2752 1 284 298
M  V30 2753 1 284 300
M  V30 2754 1 284 302
M  V30 2755 1 284 323
M  V30 2756 1 284 324
M  V30 2757 1 284 336
M  V30 2758 1 284 338
M  V30 2759 1 284 340
M  V30 2760 1 284 351
M  V30 2761 1 284 352
M  V30 2762 1 284 353
M  V30 2763 1 285 287
M  V30 2764 1 285 299
M  V30 2765 1 285 301
M  V30 2766 1 285 303
M  V30 2767 1 285 317
M  V30 2768 1 285 354
M  V30 2769 1 285 366
M  V30 2770 1 286 288
M  V30 2771 1 286 300
M  V30 2772 1 286 302
M  V30 2773 1 286 304
M  V30 2774 1 286 324
M  V30 2775 1 286 325
M  V30 2776 1 286 338
M  V30 2777 1 286 340
M  V30 2778 1 286 342
M  V30 2779 1 286 352
M  V30 2780 1 286 353
M  V30 2781 1 286 355
M  V30 2782 1 287 289
M  V30 2783 1 287 301
M  V30 2784 1 287 303
M  V30 2785 1 287 305
M  V30 2786 1 287 317
M  V30 2787 1 287 318
M  V30 2788 1 287 354
M  V30 2789 1 287 356
M  V30 2790 1 287 366
M  V30 2791 1 288 290
M  V30 2792 1 288 302
M  V30 2793 1 288 304
M  V30 2794 1 288 306
M  V30 2795 1 288 325
M  V30 2796 1 288 327
M  V30 2797 1 288 340
M  V30 2798 1 288 342
M  V30 2799 1 288 344
M  V30 2800 1 288 353
M  V30 2801 1 288 355
M  V30 2802 1 288 357
M  V30 2803 1 289 291
M  V30 2804 1 289 303
M  V30 2805 1 289 305
M  V30 2806 1 289 307
M  V30 2807 1 289 317
M  V30 2808 1 289 318
M  V30 2809 1 289 319
M  V30 2810 1 289 354
M  V30 2811 1 289 356
M  V30 2812 1 289 358
M  V30 2813 1 289 366
M  V30 2814 1 290 292
M  V30 2815 1 290 304
M  V30 2816 1 290 306
M  V30 2817 1 290 308
M  V30 2818 1 290 325
M  V30 2819 1 290 327
M  V30 2820 1 290 329
M  V30 2821 1 290 342
M  V30 2822 1 290 344
M  V30 2823 1 290 346
M  V30 2824 1 290 355
M  V30 2825 1 290 357
M  V30 2826 1 290 359
M  V30 2827 1 291 293
M  V30 2828 1 291 305
M  V30 2829 1 291 307
M  V30 2830 1 291 318
M  V30 2831 1 291 319
M  V30 2832 1 291 356
M  V30 2833 1 291 358
M  V30 2834 1 291 360
M  V30 2835 1 292 294
M  V30 2836 1 292 306
M  V30 2837 1 292 308
M  V30 2838 1 292 309
M  V30 2839 1 292 327
M  V30 2840 1 292 329
M  V30 2841 1 292 331
M  V30 2842 1 292 344
M  V30 2843 1 292 346
M  V30 2844 1 292 348
M  V30 2845 1 292 357
M  V30 2846 1 292 359
M  V30 2847 1 292 361
M  V30 2848 1 293 295
M  V30 2849 1 293 307
M  V30 2850 1 293 319
M  V30 2851 1 293 320
M  V30 2852 1 293 358
M  V30 2853 1 293 360
M  V30 2854 1 293 362
M  V30 2855 1 294 296
M  V30 2856 1 294 308
M  V30 2857 1 294 309
M  V30 2858 1 294 310
M  V30 2859 1 294 321
M  V30 2860 1 294 329
M  V30 2861 1 294 331
M  V30 2862 1 294 333
M  V30 2863 1 294 346
M  V30 2864 1 294 348
M  V30 2865 1 294 350
M  V30 2866 1 294 359
M  V30 2867 1 294 361
M  V30 2868 1 295 297
M  V30 2869 1 295 315
M  V30 2870 1 295 320
M  V30 2871 1 295 360
M  V30 2872 1 295 362
M  V30 2873 1 296 309
M  V30 2874 1 296 310
M  V30 2875 1 296 321
M  V30 2876 1 296 331
M  V30 2877 1 296 333
M  V30 2878 1 296 348
M  V30 2879 1 296 350
M  V30 2880 1 296 361
M  V30 2881 1 297 314
M  V30 2882 1 297 315
M  V30 2883 1 297 316
M  V30 2884 1 297 320
M  V30 2885 1 297 362
M  V30 2886 1 298 300
M  V30 2887 1 298 322
M  V30 2888 1 298 323
M  V30 2889 1 298 324
M  V30 2890 1 298 336
M  V30 2891 1 298 338
M  V30 2892 1 298 354
M  V30 2893 1 299 301
M  V30 2894 1 300 302
M  V30 2895 1 300 323
M  V30 2896 1 300 324
M  V30 2897 1 300 336
M  V30 2898 1 300 338
M  V30 2899 1 300 340
M  V30 2900 1 300 354
M  V30 2901 1 300 356
M  V30 2902 1 301 303
M  V30 2903 1 301 317
M  V30 2904 1 301 366
M  V30 2905 1 302 304
M  V30 2906 1 302 324
M  V30 2907 1 302 325
M  V30 2908 1 302 338
M  V30 2909 1 302 340
M  V30 2910 1 302 342
M  V30 2911 1 302 354
M  V30 2912 1 302 356
M  V30 2913 1 302 358
M  V30 2914 1 303 305
M  V30 2915 1 303 317
M  V30 2916 1 303 318
M  V30 2917 1 303 366
M  V30 2918 1 304 306
M  V30 2919 1 304 325
M  V30 2920 1 304 327
M  V30 2921 1 304 340
M  V30 2922 1 304 342
M  V30 2923 1 304 344
M  V30 2924 1 304 356
M  V30 2925 1 304 358
M  V30 2926 1 304 360
M  V30 2927 1 305 307
M  V30 2928 1 305 317
M  V30 2929 1 305 318
M  V30 2930 1 305 319
M  V30 2931 1 305 366
M  V30 2932 1 306 308
M  V30 2933 1 306 325
M  V30 2934 1 306 327
M  V30 2935 1 306 329
M  V30 2936 1 306 342
M  V30 2937 1 306 344
M  V30 2938 1 306 346
M  V30 2939 1 306 358
M  V30 2940 1 306 360
M  V30 2941 1 306 362
M  V30 2942 1 307 318
M  V30 2943 1 307 319
M  V30 2944 1 308 309
M  V30 2945 1 308 315
M  V30 2946 1 308 327
M  V30 2947 1 308 329
M  V30 2948 1 308 331
M  V30 2949 1 308 344
M  V30 2950 1 308 346
M  V30 2951 1 308 348
M  V30 2952 1 308 360
M  V30 2953 1 308 362
M  V30 2954 1 309 310
M  V30 2955 1 309 315
M  V30 2956 1 309 316
M  V30 2957 1 309 329
M  V30 2958 1 309 331
M  V30 2959 1 309 333
M  V30 2960 1 309 346
M  V30 2961 1 309 348
M  V30 2962 1 309 350
M  V30 2963 1 309 362
M  V30 2964 1 310 315
M  V30 2965 1 310 316
M  V30 2966 1 310 331
M  V30 2967 1 310 333
M  V30 2968 1 310 348
M  V30 2969 1 310 350
M  V30 2970 1 311 312
M  V30 2971 1 311 332
M  V30 2972 1 311 334
M  V30 2973 1 311 335
M  V30 2974 1 311 365
M  V30 2975 1 311 367
M  V30 2976 1 311 368
M  V30 2977 1 311 371
M  V30 2978 1 311 373
M  V30 2979 1 311 374
M  V30 2980 1 311 379
M  V30 2981 1 311 380
M  V30 2982 1 311 381
M  V30 2983 1 312 313
M  V30 2984 1 312 334
M  V30 2985 1 312 335
M  V30 2986 1 312 337
M  V30 2987 1 312 367
M  V30 2988 1 312 368
M  V30 2989 1 312 369
M  V30 2990 1 312 373
M  V30 2991 1 312 374
M  V30 2992 1 312 380
M  V30 2993 1 312 381
M  V30 2994 1 313 335
M  V30 2995 1 313 337
M  V30 2996 1 313 339
M  V30 2997 1 313 368
M  V30 2998 1 313 369
M  V30 2999 1 313 374
M  V30 3000 1 313 381
M  V30 3001 1 314 315
M  V30 3002 1 314 316
M  V30 3003 1 314 407
M  V30 3004 1 314 408
M  V30 3005 1 314 417
M  V30 3006 1 315 316
M  V30 3007 1 315 320
M  V30 3008 1 315 346
M  V30 3009 1 315 348
M  V30 3010 1 315 350
M  V30 3011 1 315 362
M  V30 3012 1 315 382
M  V30 3013 1 315 390
M  V30 3014 1 315 401
M  V30 3015 1 315 406
M  V30 3016 1 315 407
M  V30 3017 1 315 408
M  V30 3018 1 315 416
M  V30 3019 1 315 417
M  V30 3020 1 316 348
M  V30 3021 1 316 350
M  V30 3022 1 316 382
M  V30 3023 1 316 401
M  V30 3024 1 316 407
M  V30 3025 1 316 408
M  V30 3026 1 316 417
M  V30 3027 1 317 318
M  V30 3028 1 317 354
M  V30 3029 1 317 356
M  V30 3030 1 317 366
M  V30 3031 1 317 403
M  V30 3032 1 317 405
M  V30 3033 1 317 413
M  V30 3034 1 317 419
M  V30 3035 1 318 319
M  V30 3036 1 318 354
M  V30 3037 1 318 356
M  V30 3038 1 318 358
M  V30 3039 1 318 366
M  V30 3040 1 318 403
M  V30 3041 1 318 405
M  V30 3042 1 318 413
M  V30 3043 1 318 419
M  V30 3044 1 319 356
M  V30 3045 1 319 358
M  V30 3046 1 319 360
M  V30 3047 1 319 405
M  V30 3048 1 319 413
M  V30 3049 1 319 415
M  V30 3050 1 320 360
M  V30 3051 1 320 362
M  V30 3052 1 320 406
M  V30 3053 1 320 407
M  V30 3054 1 320 415
M  V30 3055 1 320 416
M  V30 3056 1 320 417
M  V30 3057 1 321 331
M  V30 3058 1 321 333
M  V30 3059 1 321 345
M  V30 3060 1 321 347
M  V30 3061 1 321 361
M  V30 3062 1 321 370
M  V30 3063 1 321 372
M  V30 3064 1 321 384
M  V30 3065 1 321 385
M  V30 3066 1 321 392
M  V30 3067 1 321 393
M  V30 3068 1 322 323
M  V30 3069 1 322 336
M  V30 3070 1 322 349
M  V30 3071 1 322 351
M  V30 3072 1 322 386
M  V30 3073 1 322 394
M  V30 3074 1 322 395
M  V30 3075 1 323 324
M  V30 3076 1 323 336
M  V30 3077 1 323 338
M  V30 3078 1 323 349
M  V30 3079 1 323 351
M  V30 3080 1 323 352
M  V30 3081 1 323 386
M  V30 3082 1 323 387
M  V30 3083 1 323 394
M  V30 3084 1 323 395
M  V30 3085 1 324 336
M  V30 3086 1 324 338
M  V30 3087 1 324 340
M  V30 3088 1 324 351
M  V30 3089 1 324 352
M  V30 3090 1 324 353
M  V30 3091 1 324 386
M  V30 3092 1 324 387
M  V30 3093 1 324 395
M  V30 3094 1 325 327
M  V30 3095 1 325 340
M  V30 3096 1 325 342
M  V30 3097 1 325 344
M  V30 3098 1 325 353
M  V30 3099 1 325 355
M  V30 3100 1 325 357
M  V30 3101 1 325 375
M  V30 3102 1 325 376
M  V30 3103 1 325 388
M  V30 3104 1 325 389
M  V30 3105 1 325 396
M  V30 3106 1 326 328
M  V30 3107 1 326 341
M  V30 3108 1 326 343
M  V30 3109 1 326 345
M  V30 3110 1 326 363
M  V30 3111 1 326 370
M  V30 3112 1 326 377
M  V30 3113 1 327 329
M  V30 3114 1 327 342
M  V30 3115 1 327 344
M  V30 3116 1 327 346
M  V30 3117 1 327 355
M  V30 3118 1 327 357
M  V30 3119 1 327 359
M  V30 3120 1 327 375
M  V30 3121 1 327 376
M  V30 3122 1 327 383
M  V30 3123 1 327 388
M  V30 3124 1 327 389
M  V30 3125 1 327 390
M  V30 3126 1 327 391
M  V30 3127 1 327 396
M  V30 3128 1 328 330
M  V30 3129 1 328 343
M  V30 3130 1 328 345
M  V30 3131 1 328 347
M  V30 3132 1 328 363
M  V30 3133 1 328 364
M  V30 3134 1 328 370
M  V30 3135 1 328 372
M  V30 3136 1 328 377
M  V30 3137 1 328 378
M  V30 3138 1 329 331
M  V30 3139 1 329 344
M  V30 3140 1 329 346
M  V30 3141 1 329 348
M  V30 3142 1 329 357
M  V30 3143 1 329 359
M  V30 3144 1 329 361
M  V30 3145 1 329 376
M  V30 3146 1 329 382
M  V30 3147 1 329 383
M  V30 3148 1 329 384
M  V30 3149 1 329 389
M  V30 3150 1 329 390
M  V30 3151 1 329 391
M  V30 3152 1 329 392
M  V30 3153 1 329 396
M  V30 3154 1 330 345
M  V30 3155 1 330 347
M  V30 3156 1 330 363
M  V30 3157 1 330 364
M  V30 3158 1 330 370
M  V30 3159 1 330 372
M  V30 3160 1 330 377
M  V30 3161 1 330 378
M  V30 3162 1 331 333
M  V30 3163 1 331 346
M  V30 3164 1 331 348
M  V30 3165 1 331 350
M  V30 3166 1 331 359
M  V30 3167 1 331 361
M  V30 3168 1 331 382
M  V30 3169 1 331 383
M  V30 3170 1 331 384
M  V30 3171 1 331 385
M  V30 3172 1 331 390
M  V30 3173 1 331 391
M  V30 3174 1 331 392
M  V30 3175 1 331 393
M  V30 3176 1 331 401
M  V30 3177 1 332 334
M  V30 3178 1 332 349
M  V30 3179 1 332 351
M  V30 3180 1 332 365
M  V30 3181 1 332 367
M  V30 3182 1 332 379
M  V30 3183 1 332 380
M  V30 3184 1 333 348
M  V30 3185 1 333 350
M  V30 3186 1 333 361
M  V30 3187 1 333 382
M  V30 3188 1 333 384
M  V30 3189 1 333 385
M  V30 3190 1 333 392
M  V30 3191 1 333 393
M  V30 3192 1 333 401
M  V30 3193 1 334 335
M  V30 3194 1 334 349
M  V30 3195 1 334 351
M  V30 3196 1 334 352
M  V30 3197 1 334 365
M  V30 3198 1 334 367
M  V30 3199 1 334 368
M  V30 3200 1 334 379
M  V30 3201 1 334 380
M  V30 3202 1 334 381
M  V30 3203 1 335 337
M  V30 3204 1 335 351
M  V30 3205 1 335 352
M  V30 3206 1 335 353
M  V30 3207 1 335 367
M  V30 3208 1 335 368
M  V30 3209 1 335 369
M  V30 3210 1 335 380
M  V30 3211 1 335 381
M  V30 3212 1 336 338
M  V30 3213 1 336 354
M  V30 3214 1 336 386
M  V30 3215 1 336 387
M  V30 3216 1 336 394
M  V30 3217 1 336 395
M  V30 3218 1 336 403
M  V30 3219 1 337 339
M  V30 3220 1 337 352
M  V30 3221 1 337 353
M  V30 3222 1 337 355
M  V30 3223 1 337 368
M  V30 3224 1 337 369
M  V30 3225 1 337 375
M  V30 3226 1 337 381
M  V30 3227 1 338 340
M  V30 3228 1 338 354
M  V30 3229 1 338 356
M  V30 3230 1 338 386
M  V30 3231 1 338 387
M  V30 3232 1 338 395
M  V30 3233 1 338 403
M  V30 3234 1 338 405
M  V30 3235 1 339 341
M  V30 3236 1 339 353
M  V30 3237 1 339 355
M  V30 3238 1 339 357
M  V30 3239 1 339 369
M  V30 3240 1 339 375
M  V30 3241 1 339 376
M  V30 3242 1 340 342
M  V30 3243 1 340 354
M  V30 3244 1 340 356
M  V30 3245 1 340 358
M  V30 3246 1 340 387
M  V30 3247 1 340 388
M  V30 3248 1 340 403
M  V30 3249 1 340 405
M  V30 3250 1 341 343
M  V30 3251 1 341 355
M  V30 3252 1 341 357
M  V30 3253 1 341 359
M  V30 3254 1 341 375
M  V30 3255 1 341 376
M  V30 3256 1 341 391
M  V30 3257 1 342 344
M  V30 3258 1 342 356
M  V30 3259 1 342 358
M  V30 3260 1 342 360
M  V30 3261 1 342 388
M  V30 3262 1 342 389
M  V30 3263 1 342 396
M  V30 3264 1 342 405
M  V30 3265 1 343 345
M  V30 3266 1 343 357
M  V30 3267 1 343 359
M  V30 3268 1 343 361
M  V30 3269 1 343 363
M  V30 3270 1 343 370
M  V30 3271 1 343 376
M  V30 3272 1 343 391
M  V30 3273 1 343 392
M  V30 3274 1 344 346
M  V30 3275 1 344 358
M  V30 3276 1 344 360
M  V30 3277 1 344 362
M  V30 3278 1 344 383
M  V30 3279 1 344 388
M  V30 3280 1 344 389
M  V30 3281 1 344 390
M  V30 3282 1 344 396
M  V30 3283 1 344 406
M  V30 3284 1 345 347
M  V30 3285 1 345 359
M  V30 3286 1 345 361
M  V30 3287 1 345 363
M  V30 3288 1 345 364
M  V30 3289 1 345 370
M  V30 3290 1 345 372
M  V30 3291 1 345 391
M  V30 3292 1 345 392
M  V30 3293 1 345 393
M  V30 3294 1 346 348
M  V30 3295 1 346 360
M  V30 3296 1 346 362
M  V30 3297 1 346 382
M  V30 3298 1 346 383
M  V30 3299 1 346 384
M  V30 3300 1 346 389
M  V30 3301 1 346 390
M  V30 3302 1 346 396
M  V30 3303 1 346 406
M  V30 3304 1 346 407
M  V30 3305 1 347 361
M  V30 3306 1 347 363
M  V30 3307 1 347 364
M  V30 3308 1 347 370
M  V30 3309 1 347 372
M  V30 3310 1 347 392
M  V30 3311 1 347 393
M  V30 3312 1 348 350
M  V30 3313 1 348 362
M  V30 3314 1 348 382
M  V30 3315 1 348 383
M  V30 3316 1 348 384
M  V30 3317 1 348 385
M  V30 3318 1 348 390
M  V30 3319 1 348 401
M  V30 3320 1 348 406
M  V30 3321 1 348 407
M  V30 3322 1 348 408
M  V30 3323 1 349 351
M  V30 3324 1 349 365
M  V30 3325 1 349 367
M  V30 3326 1 349 394
M  V30 3327 1 349 395
M  V30 3328 1 350 382
M  V30 3329 1 350 384
M  V30 3330 1 350 385
M  V30 3331 1 350 401
M  V30 3332 1 350 407
M  V30 3333 1 350 408
M  V30 3334 1 351 352
M  V30 3335 1 351 365
M  V30 3336 1 351 367
M  V30 3337 1 351 368
M  V30 3338 1 351 394
M  V30 3339 1 351 395
M  V30 3340 1 352 353
M  V30 3341 1 352 367
M  V30 3342 1 352 368
M  V30 3343 1 352 369
M  V30 3344 1 352 395
M  V30 3345 1 353 355
M  V30 3346 1 353 368
M  V30 3347 1 353 369
M  V30 3348 1 353 375
M  V30 3349 1 354 356
M  V30 3350 1 354 386
M  V30 3351 1 354 387
M  V30 3352 1 354 403
M  V30 3353 1 354 405
M  V30 3354 1 354 413
M  V30 3355 1 355 357
M  V30 3356 1 355 369
M  V30 3357 1 355 375
M  V30 3358 1 355 376
M  V30 3359 1 355 396
M  V30 3360 1 356 358
M  V30 3361 1 356 387
M  V30 3362 1 356 388
M  V30 3363 1 356 403
M  V30 3364 1 356 405
M  V30 3365 1 356 413
M  V30 3366 1 357 359
M  V30 3367 1 357 375
M  V30 3368 1 357 376
M  V30 3369 1 357 383
M  V30 3370 1 357 391
M  V30 3371 1 357 396
M  V30 3372 1 358 360
M  V30 3373 1 358 388
M  V30 3374 1 358 389
M  V30 3375 1 358 405
M  V30 3376 1 358 413
M  V30 3377 1 358 415
M  V30 3378 1 359 361
M  V30 3379 1 359 370
M  V30 3380 1 359 376
M  V30 3381 1 359 383
M  V30 3382 1 359 384
M  V30 3383 1 359 391
M  V30 3384 1 359 392
M  V30 3385 1 359 396
M  V30 3386 1 360 362
M  V30 3387 1 360 388
M  V30 3388 1 360 389
M  V30 3389 1 360 390
M  V30 3390 1 360 406
M  V30 3391 1 360 415
M  V30 3392 1 360 416
M  V30 3393 1 361 370
M  V30 3394 1 361 372
M  V30 3395 1 361 383
M  V30 3396 1 361 384
M  V30 3397 1 361 385
M  V30 3398 1 361 391
M  V30 3399 1 361 392
M  V30 3400 1 361 393
M  V30 3401 1 362 382
M  V30 3402 1 362 389
M  V30 3403 1 362 390
M  V30 3404 1 362 406
M  V30 3405 1 362 407
M  V30 3406 1 362 415
M  V30 3407 1 362 416
M  V30 3408 1 362 417
M  V30 3409 1 363 364
M  V30 3410 1 363 370
M  V30 3411 1 363 372
M  V30 3412 1 363 377
M  V30 3413 1 363 378
M  V30 3414 1 363 398
M  V30 3415 1 363 399
M  V30 3416 1 363 409
M  V30 3417 1 363 410
M  V30 3418 1 363 418
M  V30 3419 1 364 370
M  V30 3420 1 364 372
M  V30 3421 1 364 377
M  V30 3422 1 364 378
M  V30 3423 1 364 398
M  V30 3424 1 364 399
M  V30 3425 1 364 409
M  V30 3426 1 364 410
M  V30 3427 1 364 418
M  V30 3428 1 365 367
M  V30 3429 1 365 379
M  V30 3430 1 365 380
M  V30 3431 1 365 411
M  V30 3432 1 365 412
M  V30 3433 1 366 413
M  V30 3434 1 366 419
M  V30 3435 1 367 368
M  V30 3436 1 367 379
M  V30 3437 1 367 380
M  V30 3438 1 367 381
M  V30 3439 1 367 411
M  V30 3440 1 367 412
M  V30 3441 1 367 414
M  V30 3442 1 368 369
M  V30 3443 1 368 380
M  V30 3444 1 368 381
M  V30 3445 1 368 412
M  V30 3446 1 368 414
M  V30 3447 1 369 375
M  V30 3448 1 369 381
M  V30 3449 1 369 400
M  V30 3450 1 369 414
M  V30 3451 1 370 372
M  V30 3452 1 370 391
M  V30 3453 1 370 392
M  V30 3454 1 370 393
M  V30 3455 1 370 397
M  V30 3456 1 370 398
M  V30 3457 1 370 399
M  V30 3458 1 370 418
M  V30 3459 1 370 420
M  V30 3460 1 370 421
M  V30 3461 1 371 373
M  V30 3462 1 371 379
M  V30 3463 1 371 380
M  V30 3464 1 371 402
M  V30 3465 1 371 404
M  V30 3466 1 371 411
M  V30 3467 1 371 412
M  V30 3468 1 372 392
M  V30 3469 1 372 393
M  V30 3470 1 372 398
M  V30 3471 1 372 399
M  V30 3472 1 372 418
M  V30 3473 1 372 420
M  V30 3474 1 372 421
M  V30 3475 1 373 374
M  V30 3476 1 373 379
M  V30 3477 1 373 380
M  V30 3478 1 373 381
M  V30 3479 1 373 402
M  V30 3480 1 373 404
M  V30 3481 1 373 411
M  V30 3482 1 373 412
M  V30 3483 1 373 414
M  V30 3484 1 374 380
M  V30 3485 1 374 381
M  V30 3486 1 374 404
M  V30 3487 1 374 412
M  V30 3488 1 374 414
M  V30 3489 1 375 376
M  V30 3490 1 375 396
M  V30 3491 1 375 400
M  V30 3492 1 375 422
M  V30 3493 1 375 423
M  V30 3494 1 376 383
M  V30 3495 1 376 391
M  V30 3496 1 376 396
M  V30 3497 1 376 397
M  V30 3498 1 376 400
M  V30 3499 1 376 422
M  V30 3500 1 376 423
M  V30 3501 1 376 424
M  V30 3502 1 377 378
M  V30 3503 1 377 409
M  V30 3504 1 377 410
M  V30 3505 1 377 418
M  V30 3506 1 378 409
M  V30 3507 1 378 410
M  V30 3508 1 378 418
M  V30 3509 1 379 380
M  V30 3510 1 379 402
M  V30 3511 1 379 404
M  V30 3512 1 379 411
M  V30 3513 1 379 412
M  V30 3514 1 380 381
M  V30 3515 1 380 402
M  V30 3516 1 380 404
M  V30 3517 1 380 411
M  V30 3518 1 380 412
M  V30 3519 1 380 414
M  V30 3520 1 381 404
M  V30 3521 1 381 412
M  V30 3522 1 381 414
M  V30 3523 1 382 383
M  V30 3524 1 382 384
M  V30 3525 1 382 385
M  V30 3526 1 382 390
M  V30 3527 1 382 401
M  V30 3528 1 382 406
M  V30 3529 1 382 407
M  V30 3530 1 382 408
M  V30 3531 1 382 424
M  V30 3532 1 382 425
M  V30 3533 1 382 426
M  V30 3534 1 382 427
M  V30 3535 1 382 429
M  V30 3536 1 382 431
M  V30 3537 1 383 384
M  V30 3538 1 383 389
M  V30 3539 1 383 390
M  V30 3540 1 383 391
M  V30 3541 1 383 392
M  V30 3542 1 383 396
M  V30 3543 1 383 397
M  V30 3544 1 383 420
M  V30 3545 1 383 423
M  V30 3546 1 383 424
M  V30 3547 1 383 425
M  V30 3548 1 383 429
M  V30 3549 1 384 385
M  V30 3550 1 384 390
M  V30 3551 1 384 391
M  V30 3552 1 384 392
M  V30 3553 1 384 393
M  V30 3554 1 384 397
M  V30 3555 1 384 401
M  V30 3556 1 384 420
M  V30 3557 1 384 421
M  V30 3558 1 384 424
M  V30 3559 1 384 425
M  V30 3560 1 384 426
M  V30 3561 1 384 429
M  V30 3562 1 384 431
M  V30 3563 1 385 392
M  V30 3564 1 385 393
M  V30 3565 1 385 401
M  V30 3566 1 385 420
M  V30 3567 1 385 421
M  V30 3568 1 385 425
M  V30 3569 1 385 426
M  V30 3570 1 385 429
M  V30 3571 1 385 431
M  V30 3572 1 386 387
M  V30 3573 1 386 394
M  V30 3574 1 386 395
M  V30 3575 1 386 403
M  V30 3576 1 386 433
M  V30 3577 1 387 395
M  V30 3578 1 387 403
M  V30 3579 1 387 405
M  V30 3580 1 387 433
M  V30 3581 1 388 389
M  V30 3582 1 388 396
M  V30 3583 1 388 405
M  V30 3584 1 388 422
M  V30 3585 1 388 423
M  V30 3586 1 389 390
M  V30 3587 1 389 396
M  V30 3588 1 389 406
M  V30 3589 1 389 422
M  V30 3590 1 389 423
M  V30 3591 1 389 424
M  V30 3592 1 390 396
M  V30 3593 1 390 406
M  V30 3594 1 390 407
M  V30 3595 1 390 423
M  V30 3596 1 390 424
M  V30 3597 1 390 425
M  V30 3598 1 390 427
M  V30 3599 1 390 429
M  V30 3600 1 391 392
M  V30 3601 1 391 396
M  V30 3602 1 391 397
M  V30 3603 1 391 398
M  V30 3604 1 391 420
M  V30 3605 1 391 423
M  V30 3606 1 391 424
M  V30 3607 1 391 425
M  V30 3608 1 392 393
M  V30 3609 1 392 397
M  V30 3610 1 392 398
M  V30 3611 1 392 399
M  V30 3612 1 392 420
M  V30 3613 1 392 421
M  V30 3614 1 392 424
M  V30 3615 1 392 425
M  V30 3616 1 392 426
M  V30 3617 1 393 398
M  V30 3618 1 393 399
M  V30 3619 1 393 420
M  V30 3620 1 393 421
M  V30 3621 1 393 425
M  V30 3622 1 393 426
M  V30 3623 1 394 395
M  V30 3624 1 396 397
M  V30 3625 1 396 400
M  V30 3626 1 396 422
M  V30 3627 1 396 423
M  V30 3628 1 396 424
M  V30 3629 1 397 398
M  V30 3630 1 397 420
M  V30 3631 1 397 423
M  V30 3632 1 397 424
M  V30 3633 1 397 425
M  V30 3634 1 398 399
M  V30 3635 1 398 418
M  V30 3636 1 398 420
M  V30 3637 1 398 421
M  V30 3638 1 399 418
M  V30 3639 1 399 420
M  V30 3640 1 399 421
M  V30 3641 1 400 422
M  V30 3642 1 400 423
M  V30 3643 1 401 407
M  V30 3644 1 401 408
M  V30 3645 1 401 425
M  V30 3646 1 401 426
M  V30 3647 1 401 427
M  V30 3648 1 401 429
M  V30 3649 1 401 431
M  V30 3650 1 402 404
M  V30 3651 1 402 411
M  V30 3652 1 402 412
M  V30 3653 1 403 405
M  V30 3654 1 403 413
M  V30 3655 1 403 428
M  V30 3656 1 403 433
M  V30 3657 1 404 411
M  V30 3658 1 404 412
M  V30 3659 1 404 414
M  V30 3660 1 405 413
M  V30 3661 1 405 428
M  V30 3662 1 405 433
M  V30 3663 1 406 407
M  V30 3664 1 406 415
M  V30 3665 1 406 416
M  V30 3666 1 406 417
M  V30 3667 1 406 427
M  V30 3668 1 406 429
M  V30 3669 1 407 408
M  V30 3670 1 407 416
M  V30 3671 1 407 417
M  V30 3672 1 407 427
M  V30 3673 1 407 429
M  V30 3674 1 407 431
M  V30 3675 1 408 417
M  V30 3676 1 408 427
M  V30 3677 1 408 429
M  V30 3678 1 408 431
M  V30 3679 1 409 410
M  V30 3680 1 409 418
M  V30 3681 1 410 418
M  V30 3682 1 411 412
M  V30 3683 1 412 414
M  V30 3684 1 413 419
M  V30 3685 1 413 428
M  V30 3686 1 413 433
M  V30 3687 1 415 416
M  V30 3688 1 415 430
M  V30 3689 1 416 417
M  V30 3690 1 416 427
M  V30 3691 1 416 430
M  V30 3692 1 416 432
M  V30 3693 1 417 427
M  V30 3694 1 417 430
M  V30 3695 1 417 432
M  V30 3696 1 419 428
M  V30 3697 1 420 421
M  V30 3698 1 420 424
M  V30 3699 1 420 425
M  V30 3700 1 420 426
M  V30 3701 1 421 425
M  V30 3702 1 421 426
M  V30 3703 1 422 423
M  V30 3704 1 423 424
M  V30 3705 1 424 425
M  V30 3706 1 424 429
M  V30 3707 1 425 426
M  V30 3708 1 425 429
M  V30 3709 1 425 431
M  V30 3710 1 426 429
M  V30 3711 1 426 431
M  V30 3712 1 427 429
M  V30 3713 1 427 431
M  V30 3714 1 428 433
M  V30 3715 1 429 431
M  V30 3716 1 430 432
M  V30 END BOND
M  V30 END CTAB
M  END
$$$$
