# created with PyMOL 2.5.4
@<TRIPOS>MOLECULE
7l1u_receptor_and_orexin_empty_pocket_3_empty_space_aligned
1473 12625 26           
SMALL
USER_CHARGES
@<TRIPOS>ATOM
1	   0	-8.852	-3.168	2.856	O.3	1	HIS1	0.000	
2	   1	-8.852	-3.168	3.856	O.3	1	HIS1	0.000	
3	   2	-8.852	-3.168	4.856	O.3	1	HIS1	0.000	
4	   3	-8.852	-2.168	-3.144	O.3	1	HIS1	0.000	
5	   4	-8.852	-2.168	-2.144	O.3	1	HIS1	0.000	
6	   5	-8.852	-2.168	-1.144	O.3	1	HIS1	0.000	
7	   6	-8.852	-2.168	-0.144	O.3	1	HIS1	0.000	
8	   7	-8.852	-2.168	0.856	O.3	1	HIS1	0.000	
9	   8	-8.852	-2.168	1.856	O.3	1	HIS1	0.000	
10	   9	-8.852	-2.168	2.856	O.3	1	HIS1	0.000	
11	   +	-8.852	-2.168	3.856	O.3	1	HIS1	0.000	
12	   b	-8.852	-6.168	4.856	O.3	1	HIS1	0.000	
13	   c	-8.852	-5.168	-3.144	O.3	1	HIS1	0.000	
14	  Ca	-8.852	0.832	2.856	O.3	1	HIS1	0.000	
15	  CB	-8.852	-2.168	4.856	O.3	1	HIS1	0.000	
16	  Cb	-8.852	0.832	3.856	O.3	1	HIS1	0.000	
17	  CC	-8.852	-1.168	-3.144	O.3	1	HIS1	0.000	
18	  Cc	-8.852	0.832	4.856	O.3	1	HIS1	0.000	
19	  CD	-8.852	-1.168	-2.144	O.3	1	HIS1	0.000	
20	  CE	-8.852	-1.168	-1.144	O.3	1	HIS1	0.000	
21	  Ce	-8.852	1.832	-2.144	O.3	1	HIS1	0.000	
22	  CF	-8.852	-1.168	-0.144	O.3	1	HIS1	0.000	
23	  Cf	-8.852	1.832	-1.144	O.3	1	HIS1	0.000	
24	  CG	-8.852	-1.168	0.856	O.3	1	HIS1	0.000	
25	  Cg	-8.852	1.832	-0.144	O.3	1	HIS1	0.000	
26	  CH	-8.852	-1.168	1.856	O.3	1	HIS1	0.000	
27	  Ch	-8.852	1.832	0.856	O.3	1	HIS1	0.000	
28	  CI	-8.852	-1.168	2.856	O.3	1	HIS1	0.000	
29	  Ci	-8.852	1.832	1.856	O.3	1	HIS1	0.000	
30	  CJ	-8.852	-1.168	3.856	O.3	1	HIS1	0.000	
31	  Cj	-8.852	1.832	2.856	O.3	1	HIS1	0.000	
32	  CK	-8.852	-1.168	4.856	O.3	1	HIS1	0.000	
33	  Ck	-8.852	1.832	3.856	O.3	1	HIS1	0.000	
34	  CM	-8.852	-0.168	-2.144	O.3	1	HIS1	0.000	
35	  Cm	-8.852	2.832	-3.144	O.3	1	HIS1	0.000	
36	  CN	-8.852	-0.168	-1.144	O.3	1	HIS1	0.000	
37	  CO	-8.852	-0.168	-0.144	O.3	1	HIS1	0.000	
38	  CP	-8.852	-0.168	0.856	O.3	1	HIS1	0.000	
39	  CQ	-8.852	-0.168	1.856	O.3	1	HIS1	0.000	
40	  CR	-8.852	-0.168	2.856	O.3	1	HIS1	0.000	
41	  CS	-8.852	-0.168	3.856	O.3	1	HIS1	0.000	
42	  CT	-8.852	-0.168	4.856	O.3	1	HIS1	0.000	
43	  CW	-8.852	0.832	-1.144	O.3	1	HIS1	0.000	
44	  CX	-8.852	0.832	-0.144	O.3	1	HIS1	0.000	
45	  CY	-8.852	0.832	0.856	O.3	1	HIS1	0.000	
46	  CZ	-8.852	0.832	1.856	O.3	1	HIS1	0.000	
47	   d	-8.852	-5.168	-2.144	O.3	1	HIS1	0.000	
48	   E	-8.852	-8.168	-0.144	O.3	1	HIS1	0.000	
49	   e	-8.852	-5.168	-1.144	O.3	1	HIS1	0.000	
50	   F	-8.852	-8.168	0.856	O.3	1	HIS1	0.000	
51	   f	-8.852	-5.168	-0.144	O.3	1	HIS1	0.000	
52	   g	-8.852	-5.168	0.856	O.3	1	HIS1	0.000	
53	   h	-8.852	-5.168	1.856	O.3	1	HIS1	0.000	
54	   i	-8.852	-5.168	2.856	O.3	1	HIS1	0.000	
55	   J	-8.852	-8.168	4.856	O.3	1	HIS1	0.000	
56	   j	-8.852	-5.168	3.856	O.3	1	HIS1	0.000	
57	   K	-8.852	-7.168	-3.144	O.3	1	HIS1	0.000	
58	   k	-8.852	-5.168	4.856	O.3	1	HIS1	0.000	
59	   L	-8.852	-7.168	-2.144	O.3	1	HIS1	0.000	
60	   M	-8.852	-7.168	-1.144	O.3	1	HIS1	0.000	
61	   m	-8.852	-4.168	-2.144	O.3	1	HIS1	0.000	
62	   N	-8.852	-7.168	-0.144	O.3	1	HIS1	0.000	
63	   n	-8.852	-4.168	-1.144	O.3	1	HIS1	0.000	
64	   o	-8.852	-4.168	-0.144	O.3	1	HIS1	0.000	
65	   P	-8.852	-7.168	1.856	O.3	1	HIS1	0.000	
66	   p	-8.852	-4.168	0.856	O.3	1	HIS1	0.000	
67	   q	-8.852	-4.168	1.856	O.3	1	HIS1	0.000	
68	   r	-8.852	-4.168	2.856	O.3	1	HIS1	0.000	
69	   s	-8.852	-4.168	3.856	O.3	1	HIS1	0.000	
70	   T	-8.852	-6.168	-3.144	O.3	1	HIS1	0.000	
71	   t	-8.852	-4.168	4.856	O.3	1	HIS1	0.000	
72	   U	-8.852	-6.168	-2.144	O.3	1	HIS1	0.000	
73	   V	-8.852	-6.168	-1.144	O.3	1	HIS1	0.000	
74	   v	-8.852	-3.168	-2.144	O.3	1	HIS1	0.000	
75	   W	-8.852	-6.168	-0.144	O.3	1	HIS1	0.000	
76	   w	-8.852	-3.168	-1.144	O.3	1	HIS1	0.000	
77	   X	-8.852	-6.168	0.856	O.3	1	HIS1	0.000	
78	   x	-8.852	-3.168	-0.144	O.3	1	HIS1	0.000	
79	   Y	-8.852	-6.168	1.856	O.3	1	HIS1	0.000	
80	   y	-8.852	-3.168	0.856	O.3	1	HIS1	0.000	
81	   Z	-8.852	-6.168	2.856	O.3	1	HIS1	0.000	
82	   z	-8.852	-3.168	1.856	O.3	1	HIS1	0.000	
83	  C0	-8.852	3.832	1.856	O.3	2	HIS2	0.000	
84	  C4	-8.852	4.832	-3.144	O.3	2	HIS2	0.000	
85	  C5	-8.852	4.832	-2.144	O.3	2	HIS2	0.000	
86	  C6	-8.852	4.832	-1.144	O.3	2	HIS2	0.000	
87	  C7	-8.852	4.832	-0.144	O.3	2	HIS2	0.000	
88	  C8	-8.852	4.832	0.856	O.3	2	HIS2	0.000	
89	  Cn	-8.852	2.832	-2.144	O.3	2	HIS2	0.000	
90	  Co	-8.852	2.832	-1.144	O.3	2	HIS2	0.000	
91	  Cp	-8.852	2.832	-0.144	O.3	2	HIS2	0.000	
92	  Cq	-8.852	2.832	0.856	O.3	2	HIS2	0.000	
93	  Cw	-8.852	3.832	-2.144	O.3	2	HIS2	0.000	
94	  Cx	-8.852	3.832	-1.144	O.3	2	HIS2	0.000	
95	  D+	-7.852	-5.168	1.856	O.3	2	HIS2	0.000	
96	  D1	-7.852	-6.168	1.856	O.3	2	HIS2	0.000	
97	  D2	-7.852	-6.168	2.856	O.3	2	HIS2	0.000	
98	  D3	-7.852	-6.168	3.856	O.3	2	HIS2	0.000	
99	  D5	-7.852	-5.168	-3.144	O.3	2	HIS2	0.000	
100	  D6	-7.852	-5.168	-2.144	O.3	2	HIS2	0.000	
101	  D7	-7.852	-5.168	-1.144	O.3	2	HIS2	0.000	
102	  D8	-7.852	-5.168	-0.144	O.3	2	HIS2	0.000	
103	  D9	-7.852	-5.168	0.856	O.3	2	HIS2	0.000	
104	  Da	-8.852	7.832	1.856	O.3	2	HIS2	0.000	
105	  Db	-8.852	7.832	2.856	O.3	2	HIS2	0.000	
106	  Dc	-8.852	7.832	3.856	O.3	2	HIS2	0.000	
107	  DD	-8.852	5.832	-3.144	O.3	2	HIS2	0.000	
108	  DE	-8.852	5.832	-2.144	O.3	2	HIS2	0.000	
109	  DF	-8.852	5.832	-1.144	O.3	2	HIS2	0.000	
110	  DG	-8.852	5.832	-0.144	O.3	2	HIS2	0.000	
111	  DH	-8.852	5.832	0.856	O.3	2	HIS2	0.000	
112	  Dh	-7.852	-8.168	-0.144	O.3	2	HIS2	0.000	
113	  DI	-8.852	5.832	1.856	O.3	2	HIS2	0.000	
114	  Do	-7.852	-7.168	-2.144	O.3	2	HIS2	0.000	
115	  Dp	-7.852	-7.168	-1.144	O.3	2	HIS2	0.000	
116	  DQ	-8.852	6.832	0.856	O.3	2	HIS2	0.000	
117	  DR	-8.852	6.832	1.856	O.3	2	HIS2	0.000	
118	  DS	-8.852	6.832	2.856	O.3	2	HIS2	0.000	
119	  DV	-8.852	7.832	-3.144	O.3	2	HIS2	0.000	
120	  Dw	-7.852	-6.168	-3.144	O.3	2	HIS2	0.000	
121	  Dx	-7.852	-6.168	-2.144	O.3	2	HIS2	0.000	
122	  Dy	-7.852	-6.168	-1.144	O.3	2	HIS2	0.000	
123	  DZ	-8.852	7.832	0.856	O.3	2	HIS2	0.000	
124	  Dz	-7.852	-6.168	-0.144	O.3	2	HIS2	0.000	
125	  EB	-7.852	-5.168	2.856	O.3	2	HIS2	0.000	
126	  EC	-7.852	-5.168	3.856	O.3	2	HIS2	0.000	
127	  ED	-7.852	-5.168	4.856	O.3	2	HIS2	0.000	
128	  EE	-7.852	-4.168	-3.144	O.3	2	HIS2	0.000	
129	  EF	-7.852	-4.168	-2.144	O.3	2	HIS2	0.000	
130	  EG	-7.852	-4.168	-1.144	O.3	2	HIS2	0.000	
131	  EH	-7.852	-4.168	-0.144	O.3	2	HIS2	0.000	
132	  EK	-7.852	-4.168	2.856	O.3	2	HIS2	0.000	
133	  EL	-7.852	-4.168	3.856	O.3	2	HIS2	0.000	
134	  EM	-7.852	-4.168	4.856	O.3	2	HIS2	0.000	
135	  EN	-7.852	-3.168	-3.144	O.3	2	HIS2	0.000	
136	  EO	-7.852	-3.168	-2.144	O.3	2	HIS2	0.000	
137	  E+	-7.852	1.832	0.856	O.3	3	HIS3	0.000	
138	  E0	-7.852	0.832	-0.144	O.3	3	HIS3	0.000	
139	  E1	-7.852	0.832	0.856	O.3	3	HIS3	0.000	
140	  E2	-7.852	0.832	1.856	O.3	3	HIS3	0.000	
141	  E3	-7.852	0.832	2.856	O.3	3	HIS3	0.000	
142	  E4	-7.852	0.832	3.856	O.3	3	HIS3	0.000	
143	  E5	-7.852	0.832	4.856	O.3	3	HIS3	0.000	
144	  E8	-7.852	1.832	-1.144	O.3	3	HIS3	0.000	
145	  E9	-7.852	1.832	-0.144	O.3	3	HIS3	0.000	
146	  Ea	-7.852	-2.168	0.856	O.3	3	HIS3	0.000	
147	  Eb	-7.852	-2.168	1.856	O.3	3	HIS3	0.000	
148	  Ec	-7.852	-2.168	2.856	O.3	3	HIS3	0.000	
149	  Ed	-7.852	-2.168	3.856	O.3	3	HIS3	0.000	
150	  Ee	-7.852	-2.168	4.856	O.3	3	HIS3	0.000	
151	  Ef	-7.852	-1.168	-3.144	O.3	3	HIS3	0.000	
152	  Eg	-7.852	-1.168	-2.144	O.3	3	HIS3	0.000	
153	  Eh	-7.852	-1.168	-1.144	O.3	3	HIS3	0.000	
154	  Ej	-7.852	-1.168	0.856	O.3	3	HIS3	0.000	
155	  Ek	-7.852	-1.168	1.856	O.3	3	HIS3	0.000	
156	  El	-7.852	-1.168	2.856	O.3	3	HIS3	0.000	
157	  Em	-7.852	-1.168	3.856	O.3	3	HIS3	0.000	
158	  En	-7.852	-1.168	4.856	O.3	3	HIS3	0.000	
159	  EP	-7.852	-3.168	-1.144	O.3	3	HIS3	0.000	
160	  Ep	-7.852	-0.168	-2.144	O.3	3	HIS3	0.000	
161	  EQ	-7.852	-3.168	-0.144	O.3	3	HIS3	0.000	
162	  Eq	-7.852	-0.168	-1.144	O.3	3	HIS3	0.000	
163	  ER	-7.852	-3.168	0.856	O.3	3	HIS3	0.000	
164	  Er	-7.852	-0.168	-0.144	O.3	3	HIS3	0.000	
165	  ES	-7.852	-3.168	1.856	O.3	3	HIS3	0.000	
166	  Es	-7.852	-0.168	0.856	O.3	3	HIS3	0.000	
167	  ET	-7.852	-3.168	2.856	O.3	3	HIS3	0.000	
168	  Et	-7.852	-0.168	1.856	O.3	3	HIS3	0.000	
169	  EU	-7.852	-3.168	3.856	O.3	3	HIS3	0.000	
170	  Eu	-7.852	-0.168	2.856	O.3	3	HIS3	0.000	
171	  EV	-7.852	-3.168	4.856	O.3	3	HIS3	0.000	
172	  Ev	-7.852	-0.168	3.856	O.3	3	HIS3	0.000	
173	  EW	-7.852	-2.168	-3.144	O.3	3	HIS3	0.000	
174	  Ew	-7.852	-0.168	4.856	O.3	3	HIS3	0.000	
175	  EX	-7.852	-2.168	-2.144	O.3	3	HIS3	0.000	
176	  EY	-7.852	-2.168	-1.144	O.3	3	HIS3	0.000	
177	  EZ	-7.852	-2.168	-0.144	O.3	3	HIS3	0.000	
178	  Ez	-7.852	0.832	-1.144	O.3	3	HIS3	0.000	
179	  FC	-7.852	1.832	2.856	O.3	3	HIS3	0.000	
180	  FE	-7.852	1.832	4.856	O.3	3	HIS3	0.000	
181	  Fg	-7.852	5.832	-3.144	O.3	3	HIS3	0.000	
182	  FH	-7.852	2.832	-1.144	O.3	3	HIS3	0.000	
183	  Fh	-7.852	5.832	-2.144	O.3	3	HIS3	0.000	
184	  Fi	-7.852	5.832	-1.144	O.3	3	HIS3	0.000	
185	  Fk	-7.852	5.832	0.856	O.3	3	HIS3	0.000	
186	  Fl	-7.852	5.832	1.856	O.3	3	HIS3	0.000	
187	  Fq	-7.852	6.832	-2.144	O.3	3	HIS3	0.000	
188	  Fr	-7.852	6.832	-1.144	O.3	3	HIS3	0.000	
189	  Fs	-7.852	6.832	-0.144	O.3	3	HIS3	0.000	
190	  Ft	-7.852	6.832	0.856	O.3	3	HIS3	0.000	
191	  Fu	-7.852	6.832	1.856	O.3	3	HIS3	0.000	
192	  Fv	-7.852	6.832	2.856	O.3	3	HIS3	0.000	
193	  Fw	-7.852	6.832	3.856	O.3	3	HIS3	0.000	
194	  Fy	-7.852	7.832	-3.144	O.3	3	HIS3	0.000	
195	  FZ	-7.852	4.832	-1.144	O.3	3	HIS3	0.000	
196	  Fz	-7.852	7.832	-2.144	O.3	3	HIS3	0.000	
197	  F+	-6.852	-8.168	-0.144	O.3	4	HIS4	0.000	
198	  F1	-7.852	7.832	-0.144	O.3	4	HIS4	0.000	
199	  F3	-7.852	7.832	1.856	O.3	4	HIS4	0.000	
200	  F4	-7.852	7.832	2.856	O.3	4	HIS4	0.000	
201	  F5	-7.852	7.832	3.856	O.3	4	HIS4	0.000	
202	  G3	-6.852	-2.168	0.856	O.3	4	HIS4	0.000	
203	  G4	-6.852	-2.168	1.856	O.3	4	HIS4	0.000	
204	  G5	-6.852	-2.168	2.856	O.3	4	HIS4	0.000	
205	  G6	-6.852	-2.168	3.856	O.3	4	HIS4	0.000	
206	  G7	-6.852	-2.168	4.856	O.3	4	HIS4	0.000	
207	  G8	-6.852	-1.168	-3.144	O.3	4	HIS4	0.000	
208	  G9	-6.852	-1.168	-2.144	O.3	4	HIS4	0.000	
209	  Ga	-6.852	-5.168	-1.144	O.3	4	HIS4	0.000	
210	  Gf	-6.852	-5.168	3.856	O.3	4	HIS4	0.000	
211	  Gg	-6.852	-5.168	4.856	O.3	4	HIS4	0.000	
212	  Gh	-6.852	-4.168	-3.144	O.3	4	HIS4	0.000	
213	  GI	-6.852	-7.168	-1.144	O.3	4	HIS4	0.000	
214	  Gi	-6.852	-4.168	-2.144	O.3	4	HIS4	0.000	
215	  GJ	-6.852	-7.168	-0.144	O.3	4	HIS4	0.000	
216	  Gj	-6.852	-4.168	-1.144	O.3	4	HIS4	0.000	
217	  Go	-6.852	-4.168	3.856	O.3	4	HIS4	0.000	
218	  GP	-6.852	-6.168	-3.144	O.3	4	HIS4	0.000	
219	  Gp	-6.852	-4.168	4.856	O.3	4	HIS4	0.000	
220	  GQ	-6.852	-6.168	-2.144	O.3	4	HIS4	0.000	
221	  Gq	-6.852	-3.168	-3.144	O.3	4	HIS4	0.000	
222	  GR	-6.852	-6.168	-1.144	O.3	4	HIS4	0.000	
223	  Gr	-6.852	-3.168	-2.144	O.3	4	HIS4	0.000	
224	  GS	-6.852	-6.168	-0.144	O.3	4	HIS4	0.000	
225	  Gs	-6.852	-3.168	-1.144	O.3	4	HIS4	0.000	
226	  Gt	-6.852	-3.168	-0.144	O.3	4	HIS4	0.000	
227	  GW	-6.852	-6.168	3.856	O.3	4	HIS4	0.000	
228	  GX	-6.852	-6.168	4.856	O.3	4	HIS4	0.000	
229	  Gx	-6.852	-3.168	3.856	O.3	4	HIS4	0.000	
230	  GY	-6.852	-5.168	-3.144	O.3	4	HIS4	0.000	
231	  Gy	-6.852	-3.168	4.856	O.3	4	HIS4	0.000	
232	  GZ	-6.852	-5.168	-2.144	O.3	4	HIS4	0.000	
233	  Hc	-6.852	1.832	-0.144	O.3	4	HIS4	0.000	
234	  HD	-6.852	-1.168	1.856	O.3	4	HIS4	0.000	
235	  HE	-6.852	-1.168	2.856	O.3	4	HIS4	0.000	
236	  HF	-6.852	-1.168	3.856	O.3	4	HIS4	0.000	
237	  HG	-6.852	-1.168	4.856	O.3	4	HIS4	0.000	
238	  HI	-6.852	-0.168	-2.144	O.3	4	HIS4	0.000	
239	  HJ	-6.852	-0.168	-1.144	O.3	4	HIS4	0.000	
240	  HL	-6.852	-0.168	0.856	O.3	4	HIS4	0.000	
241	  HM	-6.852	-0.168	1.856	O.3	4	HIS4	0.000	
242	  HN	-6.852	-0.168	2.856	O.3	4	HIS4	0.000	
243	  HO	-6.852	-0.168	3.856	O.3	4	HIS4	0.000	
244	  HP	-6.852	-0.168	4.856	O.3	4	HIS4	0.000	
245	  HS	-6.852	0.832	-1.144	O.3	4	HIS4	0.000	
246	  HT	-6.852	0.832	-0.144	O.3	4	HIS4	0.000	
247	  HW	-6.852	0.832	2.856	O.3	4	HIS4	0.000	
248	  HX	-6.852	0.832	3.856	O.3	4	HIS4	0.000	
249	  HY	-6.852	0.832	4.856	O.3	4	HIS4	0.000	
250	  H+	-6.852	5.832	-2.144	O.3	5	HIS5	0.000	
251	  He	-6.852	1.832	1.856	O.3	5	HIS5	0.000	
252	  Hf	-6.852	1.832	2.856	O.3	5	HIS5	0.000	
253	  Hg	-6.852	1.832	3.856	O.3	5	HIS5	0.000	
254	  Hk	-6.852	2.832	-1.144	O.3	5	HIS5	0.000	
255	  I+	-5.852	-4.168	-3.144	O.3	5	HIS5	0.000	
256	  I0	-5.852	-6.168	4.856	O.3	5	HIS5	0.000	
257	  I1	-5.852	-5.168	-3.144	O.3	5	HIS5	0.000	
258	  I2	-5.852	-5.168	-2.144	O.3	5	HIS5	0.000	
259	  I8	-5.852	-5.168	3.856	O.3	5	HIS5	0.000	
260	  I9	-5.852	-5.168	4.856	O.3	5	HIS5	0.000	
261	  Id	-5.852	-8.168	-0.144	O.3	5	HIS5	0.000	
262	  Ie	-5.852	-8.168	0.856	O.3	5	HIS5	0.000	
263	  IF	-6.852	5.832	2.856	O.3	5	HIS5	0.000	
264	  IG	-6.852	5.832	3.856	O.3	5	HIS5	0.000	
265	  IH	-6.852	5.832	4.856	O.3	5	HIS5	0.000	
266	  IJ	-6.852	6.832	-2.144	O.3	5	HIS5	0.000	
267	  Ik	-5.852	-7.168	-2.144	O.3	5	HIS5	0.000	
268	  Il	-5.852	-7.168	-1.144	O.3	5	HIS5	0.000	
269	  IN	-6.852	6.832	1.856	O.3	5	HIS5	0.000	
270	  IO	-6.852	6.832	2.856	O.3	5	HIS5	0.000	
271	  IP	-6.852	6.832	3.856	O.3	5	HIS5	0.000	
272	  IQ	-6.852	6.832	4.856	O.3	5	HIS5	0.000	
273	  Ir	-5.852	-7.168	4.856	O.3	5	HIS5	0.000	
274	  IS	-6.852	7.832	-2.144	O.3	5	HIS5	0.000	
275	  Is	-5.852	-6.168	-3.144	O.3	5	HIS5	0.000	
276	  IT	-6.852	7.832	-1.144	O.3	5	HIS5	0.000	
277	  It	-5.852	-6.168	-2.144	O.3	5	HIS5	0.000	
278	  Iu	-5.852	-6.168	-1.144	O.3	5	HIS5	0.000	
279	  IY	-6.852	7.832	3.856	O.3	5	HIS5	0.000	
280	  Iy	-5.852	-6.168	2.856	O.3	5	HIS5	0.000	
281	  IZ	-6.852	7.832	4.856	O.3	5	HIS5	0.000	
282	  Iz	-5.852	-6.168	3.856	O.3	5	HIS5	0.000	
283	  JB	-5.852	-4.168	-2.144	O.3	5	HIS5	0.000	
284	  JC	-5.852	-4.168	-1.144	O.3	5	HIS5	0.000	
285	  J0	-5.852	0.832	3.856	O.3	6	HIS6	0.000	
286	  J4	-5.852	1.832	-1.144	O.3	6	HIS6	0.000	
287	  Ja	-5.852	-2.168	4.856	O.3	6	HIS6	0.000	
288	  Jf	-5.852	-1.168	0.856	O.3	6	HIS6	0.000	
289	  Jg	-5.852	-1.168	1.856	O.3	6	HIS6	0.000	
290	  Jh	-5.852	-1.168	2.856	O.3	6	HIS6	0.000	
291	  JI	-5.852	-4.168	4.856	O.3	6	HIS6	0.000	
292	  Ji	-5.852	-1.168	3.856	O.3	6	HIS6	0.000	
293	  Jj	-5.852	-1.168	4.856	O.3	6	HIS6	0.000	
294	  JQ	-5.852	-3.168	3.856	O.3	6	HIS6	0.000	
295	  JR	-5.852	-3.168	4.856	O.3	6	HIS6	0.000	
296	  Jr	-5.852	-0.168	3.856	O.3	6	HIS6	0.000	
297	  Js	-5.852	-0.168	4.856	O.3	6	HIS6	0.000	
298	  Jv	-5.852	0.832	-1.144	O.3	6	HIS6	0.000	
299	  JW	-5.852	-2.168	0.856	O.3	6	HIS6	0.000	
300	  JY	-5.852	-2.168	2.856	O.3	6	HIS6	0.000	
301	  JZ	-5.852	-2.168	3.856	O.3	6	HIS6	0.000	
302	  Ka	-5.852	4.832	3.856	O.3	6	HIS6	0.000	
303	  Kc	-5.852	5.832	-3.144	O.3	6	HIS6	0.000	
304	  KH	-5.852	2.832	2.856	O.3	6	HIS6	0.000	
305	  KI	-5.852	2.832	3.856	O.3	6	HIS6	0.000	
306	  Ki	-5.852	5.832	2.856	O.3	6	HIS6	0.000	
307	  Kj	-5.852	5.832	3.856	O.3	6	HIS6	0.000	
308	  Kk	-5.852	5.832	4.856	O.3	6	HIS6	0.000	
309	  Km	-5.852	6.832	-2.144	O.3	6	HIS6	0.000	
310	  KQ	-5.852	3.832	2.856	O.3	6	HIS6	0.000	
311	  Kq	-5.852	6.832	1.856	O.3	6	HIS6	0.000	
312	  KZ	-5.852	4.832	2.856	O.3	6	HIS6	0.000	
313	  K2	-5.852	7.832	4.856	O.3	7	HIS7	0.000	
314	  K5	-4.852	-8.168	-1.144	O.3	7	HIS7	0.000	
315	  K6	-4.852	-8.168	-0.144	O.3	7	HIS7	0.000	
316	  Ks	-5.852	6.832	3.856	O.3	7	HIS7	0.000	
317	  Kt	-5.852	6.832	4.856	O.3	7	HIS7	0.000	
318	  Ku	-5.852	7.832	-3.144	O.3	7	HIS7	0.000	
319	  Kw	-5.852	7.832	-1.144	O.3	7	HIS7	0.000	
320	  L0	-4.852	-2.168	1.856	O.3	7	HIS7	0.000	
321	  L1	-4.852	-2.168	2.856	O.3	7	HIS7	0.000	
322	  L2	-4.852	-2.168	3.856	O.3	7	HIS7	0.000	
323	  L3	-4.852	-2.168	4.856	O.3	7	HIS7	0.000	
324	  Lb	-4.852	-5.168	3.856	O.3	7	HIS7	0.000	
325	  LC	-4.852	-7.168	-3.144	O.3	7	HIS7	0.000	
326	  Lc	-4.852	-5.168	4.856	O.3	7	HIS7	0.000	
327	  LD	-4.852	-7.168	-2.144	O.3	7	HIS7	0.000	
328	  Ld	-4.852	-4.168	-3.144	O.3	7	HIS7	0.000	
329	  LE	-4.852	-7.168	-1.144	O.3	7	HIS7	0.000	
330	  LI	-4.852	-7.168	2.856	O.3	7	HIS7	0.000	
331	  Lk	-4.852	-4.168	3.856	O.3	7	HIS7	0.000	
332	  LL	-4.852	-6.168	-3.144	O.3	7	HIS7	0.000	
333	  Ll	-4.852	-4.168	4.856	O.3	7	HIS7	0.000	
334	  LS	-4.852	-6.168	3.856	O.3	7	HIS7	0.000	
335	  LT	-4.852	-6.168	4.856	O.3	7	HIS7	0.000	
336	  Lt	-4.852	-3.168	3.856	O.3	7	HIS7	0.000	
337	  LU	-4.852	-5.168	-3.144	O.3	7	HIS7	0.000	
338	  Lu	-4.852	-3.168	4.856	O.3	7	HIS7	0.000	
339	  LW	-4.852	-5.168	-1.144	O.3	7	HIS7	0.000	
340	  MB	-4.852	-1.168	3.856	O.3	7	HIS7	0.000	
341	  MC	-4.852	-1.168	4.856	O.3	7	HIS7	0.000	
342	  ML	-4.852	-0.168	4.856	O.3	7	HIS7	0.000	
343	  MM	-4.852	0.832	-3.144	O.3	7	HIS7	0.000	
344	  MN	-4.852	0.832	-2.144	O.3	7	HIS7	0.000	
345	  M+	-4.852	5.832	1.856	O.3	8	HIS8	0.000	
346	  M1	-4.852	4.832	1.856	O.3	8	HIS8	0.000	
347	  M2	-4.852	4.832	2.856	O.3	8	HIS8	0.000	
348	  M3	-4.852	4.832	3.856	O.3	8	HIS8	0.000	
349	  M6	-4.852	5.832	-2.144	O.3	8	HIS8	0.000	
350	  Mc	-4.852	1.832	3.856	O.3	8	HIS8	0.000	
351	  Me	-4.852	2.832	-3.144	O.3	8	HIS8	0.000	
352	  Mf	-4.852	2.832	-2.144	O.3	8	HIS8	0.000	
353	  Mg	-4.852	2.832	-1.144	O.3	8	HIS8	0.000	
354	  Mk	-4.852	2.832	2.856	O.3	8	HIS8	0.000	
355	  Ml	-4.852	2.832	3.856	O.3	8	HIS8	0.000	
356	  Mo	-4.852	3.832	-2.144	O.3	8	HIS8	0.000	
357	  Ms	-4.852	3.832	1.856	O.3	8	HIS8	0.000	
358	  Mt	-4.852	3.832	2.856	O.3	8	HIS8	0.000	
359	  MU	-4.852	0.832	4.856	O.3	8	HIS8	0.000	
360	  MW	-4.852	1.832	-2.144	O.3	8	HIS8	0.000	
361	  MX	-4.852	1.832	-1.144	O.3	8	HIS8	0.000	
362	  Mx	-4.852	4.832	-2.144	O.3	8	HIS8	0.000	
363	  Na	-3.852	-8.168	0.856	O.3	8	HIS8	0.000	
364	  NB	-4.852	5.832	2.856	O.3	8	HIS8	0.000	
365	  Nb	-3.852	-8.168	1.856	O.3	8	HIS8	0.000	
366	  Nc	-3.852	-8.168	2.856	O.3	8	HIS8	0.000	
367	  ND	-4.852	5.832	4.856	O.3	8	HIS8	0.000	
368	  NE	-4.852	6.832	-3.144	O.3	8	HIS8	0.000	
369	  NF	-4.852	6.832	-2.144	O.3	8	HIS8	0.000	
370	  NJ	-4.852	6.832	1.856	O.3	8	HIS8	0.000	
371	  NK	-4.852	6.832	2.856	O.3	8	HIS8	0.000	
372	  NL	-4.852	6.832	3.856	O.3	8	HIS8	0.000	
373	  NM	-4.852	6.832	4.856	O.3	8	HIS8	0.000	
374	  NN	-4.852	7.832	-3.144	O.3	8	HIS8	0.000	
375	  NP	-4.852	7.832	-1.144	O.3	8	HIS8	0.000	
376	  Nw	-3.852	-6.168	4.856	O.3	8	HIS8	0.000	
377	  NY	-3.852	-8.168	-1.144	O.3	8	HIS8	0.000	
378	  NZ	-3.852	-8.168	-0.144	O.3	8	HIS8	0.000	
379	  OE	-3.852	-4.168	4.856	O.3	9	HIS9	0.000	
380	  OM	-3.852	-3.168	3.856	O.3	9	HIS9	0.000	
381	  ON	-3.852	-3.168	4.856	O.3	9	HIS9	0.000	
382	  O0	-3.852	1.832	-1.144	O.3	9	HIS9	0.000	
383	  O5	-3.852	1.832	3.856	O.3	9	HIS9	0.000	
384	  O6	-3.852	1.832	4.856	O.3	9	HIS9	0.000	
385	  O8	-3.852	2.832	-2.144	O.3	9	HIS9	0.000	
386	  O9	-3.852	2.832	-1.144	O.3	9	HIS9	0.000	
387	  O+	-3.852	2.832	-0.144	O.3	9	HIS9	0.000	
388	  Oa	-3.852	-1.168	-0.144	O.3	9	HIS9	0.000	
389	  Ob	-3.852	-1.168	0.856	O.3	9	HIS9	0.000	
390	  Od	-3.852	-1.168	2.856	O.3	9	HIS9	0.000	
391	  Oe	-3.852	-1.168	3.856	O.3	9	HIS9	0.000	
392	  Of	-3.852	-1.168	4.856	O.3	9	HIS9	0.000	
393	  Og	-3.852	-0.168	-3.144	O.3	9	HIS9	0.000	
394	  Oh	-3.852	-0.168	-2.144	O.3	9	HIS9	0.000	
395	  On	-3.852	-0.168	3.856	O.3	9	HIS9	0.000	
396	  Oo	-3.852	-0.168	4.856	O.3	9	HIS9	0.000	
397	  Op	-3.852	0.832	-3.144	O.3	9	HIS9	0.000	
398	  Oq	-3.852	0.832	-2.144	O.3	9	HIS9	0.000	
399	  OR	-3.852	-2.168	-0.144	O.3	9	HIS9	0.000	
400	  OS	-3.852	-2.168	0.856	O.3	9	HIS9	0.000	
401	  OU	-3.852	-2.168	2.856	O.3	9	HIS9	0.000	
402	  OV	-3.852	-2.168	3.856	O.3	9	HIS9	0.000	
403	  OW	-3.852	-2.168	4.856	O.3	9	HIS9	0.000	
404	  Ox	-3.852	0.832	4.856	O.3	9	HIS9	0.000	
405	  Oy	-3.852	1.832	-3.144	O.3	9	HIS9	0.000	
406	  Oz	-3.852	1.832	-2.144	O.3	9	HIS9	0.000	
407	  N5	-3.852	-5.168	4.856	O.3	9	HIS9	0.000	
408	  N6	-3.852	-4.168	-3.144	O.3	9	HIS9	0.000	
409	  N8	-3.852	-4.168	-1.144	O.3	9	HIS9	0.000	
410	  Pa	-3.852	5.832	-1.144	O.3	9	HIS9	0.000	
411	  PB	-3.852	2.832	0.856	O.3	9	HIS9	0.000	
412	  PC	-3.852	2.832	1.856	O.3	9	HIS9	0.000	
413	  Pc	-3.852	5.832	0.856	O.3	9	HIS9	0.000	
414	  PD	-3.852	2.832	2.856	O.3	9	HIS9	0.000	
415	  Pd	-3.852	5.832	1.856	O.3	9	HIS9	0.000	
416	  PI	-3.852	3.832	-1.144	O.3	9	HIS9	0.000	
417	  PK	-3.852	3.832	0.856	O.3	9	HIS9	0.000	
418	  PL	-3.852	3.832	1.856	O.3	9	HIS9	0.000	
419	  PR	-3.852	4.832	-1.144	O.3	9	HIS9	0.000	
420	  PS	-3.852	4.832	-0.144	O.3	9	HIS9	0.000	
421	  PT	-3.852	4.832	0.856	O.3	9	HIS9	0.000	
422	  PU	-3.852	4.832	1.856	O.3	9	HIS9	0.000	
423	  PV	-3.852	4.832	2.856	O.3	9	HIS9	0.000	
424	  P1	-2.852	-8.168	-1.144	O.3	10	HIS10	0.000	
425	  P3	-2.852	-8.168	0.856	O.3	10	HIS10	0.000	
426	  P4	-2.852	-8.168	1.856	O.3	10	HIS10	0.000	
427	  Pk	-3.852	6.832	-0.144	O.3	10	HIS10	0.000	
428	  Pl	-3.852	6.832	0.856	O.3	10	HIS10	0.000	
429	  Pm	-3.852	6.832	1.856	O.3	10	HIS10	0.000	
430	  Pn	-3.852	6.832	2.856	O.3	10	HIS10	0.000	
431	  Ps	-3.852	7.832	-1.144	O.3	10	HIS10	0.000	
432	  Pt	-3.852	7.832	-0.144	O.3	10	HIS10	0.000	
433	  Pu	-3.852	7.832	0.856	O.3	10	HIS10	0.000	
434	  Pv	-3.852	7.832	1.856	O.3	10	HIS10	0.000	
435	  Pw	-3.852	7.832	2.856	O.3	10	HIS10	0.000	
436	  Q+	-2.852	-0.168	-2.144	O.3	10	HIS10	0.000	
437	  Q0	-2.852	-1.168	-3.144	O.3	10	HIS10	0.000	
438	  Q1	-2.852	-1.168	-2.144	O.3	10	HIS10	0.000	
439	  Q2	-2.852	-1.168	-1.144	O.3	10	HIS10	0.000	
440	  Q3	-2.852	-1.168	-0.144	O.3	10	HIS10	0.000	
441	  Q4	-2.852	-1.168	0.856	O.3	10	HIS10	0.000	
442	  Q5	-2.852	-1.168	1.856	O.3	10	HIS10	0.000	
443	  Q6	-2.852	-1.168	2.856	O.3	10	HIS10	0.000	
444	  Q7	-2.852	-1.168	3.856	O.3	10	HIS10	0.000	
445	  Q8	-2.852	-1.168	4.856	O.3	10	HIS10	0.000	
446	  Q9	-2.852	-0.168	-3.144	O.3	10	HIS10	0.000	
447	  Qb	-2.852	-4.168	-1.144	O.3	10	HIS10	0.000	
448	  Qc	-2.852	-4.168	-0.144	O.3	10	HIS10	0.000	
449	  QD	-2.852	-7.168	1.856	O.3	10	HIS10	0.000	
450	  QE	-2.852	-7.168	2.856	O.3	10	HIS10	0.000	
451	  QG	-2.852	-7.168	4.856	O.3	10	HIS10	0.000	
452	  Qg	-2.852	-4.168	3.856	O.3	10	HIS10	0.000	
453	  Qh	-2.852	-4.168	4.856	O.3	10	HIS10	0.000	
454	  Qi	-2.852	-3.168	-3.144	O.3	10	HIS10	0.000	
455	  Qk	-2.852	-3.168	-1.144	O.3	10	HIS10	0.000	
456	  QM	-2.852	-6.168	1.856	O.3	10	HIS10	0.000	
457	  QN	-2.852	-6.168	2.856	O.3	10	HIS10	0.000	
458	  QO	-2.852	-6.168	3.856	O.3	10	HIS10	0.000	
459	  QP	-2.852	-6.168	4.856	O.3	10	HIS10	0.000	
460	  Qp	-2.852	-3.168	3.856	O.3	10	HIS10	0.000	
461	  Qq	-2.852	-3.168	4.856	O.3	10	HIS10	0.000	
462	  Qr	-2.852	-2.168	-3.144	O.3	10	HIS10	0.000	
463	  Qu	-2.852	-2.168	-0.144	O.3	10	HIS10	0.000	
464	  Qv	-2.852	-2.168	0.856	O.3	10	HIS10	0.000	
465	  QX	-2.852	-5.168	3.856	O.3	10	HIS10	0.000	
466	  Qx	-2.852	-2.168	2.856	O.3	10	HIS10	0.000	
467	  QY	-2.852	-5.168	4.856	O.3	10	HIS10	0.000	
468	  Qy	-2.852	-2.168	3.856	O.3	10	HIS10	0.000	
469	  Qz	-2.852	-2.168	4.856	O.3	10	HIS10	0.000	
470	  RC	-2.852	-0.168	-0.144	O.3	10	HIS10	0.000	
471	  RD	-2.852	-0.168	0.856	O.3	10	HIS10	0.000	
472	  RF	-2.852	-0.168	2.856	O.3	10	HIS10	0.000	
473	  RG	-2.852	-0.168	3.856	O.3	10	HIS10	0.000	
474	  RH	-2.852	-0.168	4.856	O.3	10	HIS10	0.000	
475	  RI	-2.852	0.832	-3.144	O.3	10	HIS10	0.000	
476	  R4	-2.852	5.832	-0.144	O.3	11	HIS11	0.000	
477	  R5	-2.852	5.832	0.856	O.3	11	HIS11	0.000	
478	  R6	-2.852	5.832	1.856	O.3	11	HIS11	0.000	
479	  R7	-2.852	5.832	2.856	O.3	11	HIS11	0.000	
480	  Rb	-2.852	2.832	-2.144	O.3	11	HIS11	0.000	
481	  Rc	-2.852	2.832	-1.144	O.3	11	HIS11	0.000	
482	  Rd	-2.852	2.832	-0.144	O.3	11	HIS11	0.000	
483	  Re	-2.852	2.832	0.856	O.3	11	HIS11	0.000	
484	  Rf	-2.852	2.832	1.856	O.3	11	HIS11	0.000	
485	  RJ	-2.852	0.832	-2.144	O.3	11	HIS11	0.000	
486	  RK	-2.852	0.832	-1.144	O.3	11	HIS11	0.000	
487	  Rl	-2.852	3.832	-1.144	O.3	11	HIS11	0.000	
488	  Rm	-2.852	3.832	-0.144	O.3	11	HIS11	0.000	
489	  Rn	-2.852	3.832	0.856	O.3	11	HIS11	0.000	
490	  RP	-2.852	0.832	3.856	O.3	11	HIS11	0.000	
491	  RQ	-2.852	0.832	4.856	O.3	11	HIS11	0.000	
492	  RR	-2.852	1.832	-3.144	O.3	11	HIS11	0.000	
493	  RS	-2.852	1.832	-2.144	O.3	11	HIS11	0.000	
494	  RT	-2.852	1.832	-1.144	O.3	11	HIS11	0.000	
495	  RU	-2.852	1.832	-0.144	O.3	11	HIS11	0.000	
496	  RV	-2.852	1.832	0.856	O.3	11	HIS11	0.000	
497	  Rv	-2.852	4.832	-0.144	O.3	11	HIS11	0.000	
498	  RW	-2.852	1.832	1.856	O.3	11	HIS11	0.000	
499	  Rw	-2.852	4.832	0.856	O.3	11	HIS11	0.000	
500	  RX	-2.852	1.832	2.856	O.3	11	HIS11	0.000	
501	  Rx	-2.852	4.832	1.856	O.3	11	HIS11	0.000	
502	  RY	-2.852	1.832	3.856	O.3	11	HIS11	0.000	
503	  SE	-2.852	6.832	0.856	O.3	11	HIS11	0.000	
504	  SF	-2.852	6.832	1.856	O.3	11	HIS11	0.000	
505	  Sf	-1.852	-7.168	0.856	O.3	11	HIS11	0.000	
506	  SG	-2.852	6.832	2.856	O.3	11	HIS11	0.000	
507	  SH	-2.852	6.832	3.856	O.3	11	HIS11	0.000	
508	  SI	-2.852	6.832	4.856	O.3	11	HIS11	0.000	
509	  SM	-2.852	7.832	-0.144	O.3	11	HIS11	0.000	
510	  SN	-2.852	7.832	0.856	O.3	11	HIS11	0.000	
511	  Sn	-1.852	-6.168	-0.144	O.3	11	HIS11	0.000	
512	  SO	-2.852	7.832	1.856	O.3	11	HIS11	0.000	
513	  So	-1.852	-6.168	0.856	O.3	11	HIS11	0.000	
514	  SP	-2.852	7.832	2.856	O.3	11	HIS11	0.000	
515	  Sp	-1.852	-6.168	1.856	O.3	11	HIS11	0.000	
516	  S+	-1.852	-4.168	4.856	O.3	12	HIS12	0.000	
517	  S0	-1.852	-5.168	3.856	O.3	12	HIS12	0.000	
518	  S1	-1.852	-5.168	4.856	O.3	12	HIS12	0.000	
519	  S4	-1.852	-4.168	-1.144	O.3	12	HIS12	0.000	
520	  S6	-1.852	-4.168	0.856	O.3	12	HIS12	0.000	
521	  S8	-1.852	-4.168	2.856	O.3	12	HIS12	0.000	
522	  S9	-1.852	-4.168	3.856	O.3	12	HIS12	0.000	
523	  Sw	-1.852	-5.168	-0.144	O.3	12	HIS12	0.000	
524	  Sy	-1.852	-5.168	1.856	O.3	12	HIS12	0.000	
525	  Sz	-1.852	-5.168	2.856	O.3	12	HIS12	0.000	
526	  T0	-1.852	1.832	2.856	O.3	12	HIS12	0.000	
527	  T1	-1.852	1.832	3.856	O.3	12	HIS12	0.000	
528	  T2	-1.852	1.832	4.856	O.3	12	HIS12	0.000	
529	  T3	-1.852	2.832	-3.144	O.3	12	HIS12	0.000	
530	  T4	-1.852	2.832	-2.144	O.3	12	HIS12	0.000	
531	  T5	-1.852	2.832	-1.144	O.3	12	HIS12	0.000	
532	  T6	-1.852	2.832	-0.144	O.3	12	HIS12	0.000	
533	  T7	-1.852	2.832	0.856	O.3	12	HIS12	0.000	
534	  T8	-1.852	2.832	1.856	O.3	12	HIS12	0.000	
535	  T9	-1.852	2.832	2.856	O.3	12	HIS12	0.000	
536	  Ta	-1.852	-1.168	3.856	O.3	12	HIS12	0.000	
537	  Tb	-1.852	-1.168	4.856	O.3	12	HIS12	0.000	
538	  Tc	-1.852	-0.168	-3.144	O.3	12	HIS12	0.000	
539	  Tg	-1.852	-0.168	0.856	O.3	12	HIS12	0.000	
540	  TH	-1.852	-3.168	2.856	O.3	12	HIS12	0.000	
541	  Th	-1.852	-0.168	1.856	O.3	12	HIS12	0.000	
542	  TI	-1.852	-3.168	3.856	O.3	12	HIS12	0.000	
543	  Ti	-1.852	-0.168	2.856	O.3	12	HIS12	0.000	
544	  TJ	-1.852	-3.168	4.856	O.3	12	HIS12	0.000	
545	  Tj	-1.852	-0.168	3.856	O.3	12	HIS12	0.000	
546	  TK	-1.852	-2.168	-3.144	O.3	12	HIS12	0.000	
547	  Tk	-1.852	-0.168	4.856	O.3	12	HIS12	0.000	
548	  Tl	-1.852	0.832	-3.144	O.3	12	HIS12	0.000	
549	  Tm	-1.852	0.832	-2.144	O.3	12	HIS12	0.000	
550	  TO	-1.852	-2.168	0.856	O.3	12	HIS12	0.000	
551	  To	-1.852	0.832	-0.144	O.3	12	HIS12	0.000	
552	  TP	-1.852	-2.168	1.856	O.3	12	HIS12	0.000	
553	  Tp	-1.852	0.832	0.856	O.3	12	HIS12	0.000	
554	  TQ	-1.852	-2.168	2.856	O.3	12	HIS12	0.000	
555	  Tq	-1.852	0.832	1.856	O.3	12	HIS12	0.000	
556	  TR	-1.852	-2.168	3.856	O.3	12	HIS12	0.000	
557	  Tr	-1.852	0.832	2.856	O.3	12	HIS12	0.000	
558	  TS	-1.852	-2.168	4.856	O.3	12	HIS12	0.000	
559	  Ts	-1.852	0.832	3.856	O.3	12	HIS12	0.000	
560	  TT	-1.852	-1.168	-3.144	O.3	12	HIS12	0.000	
561	  Tt	-1.852	0.832	4.856	O.3	12	HIS12	0.000	
562	  Tu	-1.852	1.832	-3.144	O.3	12	HIS12	0.000	
563	  Tv	-1.852	1.832	-2.144	O.3	12	HIS12	0.000	
564	  Tw	-1.852	1.832	-1.144	O.3	12	HIS12	0.000	
565	  TX	-1.852	-1.168	0.856	O.3	12	HIS12	0.000	
566	  Tx	-1.852	1.832	-0.144	O.3	12	HIS12	0.000	
567	  TY	-1.852	-1.168	1.856	O.3	12	HIS12	0.000	
568	  Ty	-1.852	1.832	0.856	O.3	12	HIS12	0.000	
569	  TZ	-1.852	-1.168	2.856	O.3	12	HIS12	0.000	
570	  Tz	-1.852	1.832	1.856	O.3	12	HIS12	0.000	
571	  UE	-1.852	3.832	-1.144	O.3	12	HIS12	0.000	
572	  UF	-1.852	3.832	-0.144	O.3	12	HIS12	0.000	
573	  UG	-1.852	3.832	0.856	O.3	12	HIS12	0.000	
574	  UH	-1.852	3.832	1.856	O.3	12	HIS12	0.000	
575	  UN	-1.852	4.832	-1.144	O.3	12	HIS12	0.000	
576	  UO	-1.852	4.832	-0.144	O.3	12	HIS12	0.000	
577	  UP	-1.852	4.832	0.856	O.3	12	HIS12	0.000	
578	  UQ	-1.852	4.832	1.856	O.3	12	HIS12	0.000	
579	  UR	-1.852	4.832	2.856	O.3	12	HIS12	0.000	
580	  U4	-0.852	-7.168	-3.144	O.3	13	HIS13	0.000	
581	  U8	-0.852	-7.168	0.856	O.3	13	HIS13	0.000	
582	  Ua	-1.852	5.832	2.856	O.3	13	HIS13	0.000	
583	  Ub	-1.852	5.832	3.856	O.3	13	HIS13	0.000	
584	  Uc	-1.852	5.832	4.856	O.3	13	HIS13	0.000	
585	  Uh	-1.852	6.832	0.856	O.3	13	HIS13	0.000	
586	  Ui	-1.852	6.832	1.856	O.3	13	HIS13	0.000	
587	  Uj	-1.852	6.832	2.856	O.3	13	HIS13	0.000	
588	  Uk	-1.852	6.832	3.856	O.3	13	HIS13	0.000	
589	  Ul	-1.852	6.832	4.856	O.3	13	HIS13	0.000	
590	  Up	-1.852	7.832	-0.144	O.3	13	HIS13	0.000	
591	  Uq	-1.852	7.832	0.856	O.3	13	HIS13	0.000	
592	  Ur	-1.852	7.832	1.856	O.3	13	HIS13	0.000	
593	  Us	-1.852	7.832	2.856	O.3	13	HIS13	0.000	
594	  Ut	-1.852	7.832	3.856	O.3	13	HIS13	0.000	
595	  Uw	-0.852	-8.168	-2.144	O.3	13	HIS13	0.000	
596	  UX	-1.852	5.832	-0.144	O.3	13	HIS13	0.000	
597	  UY	-1.852	5.832	0.856	O.3	13	HIS13	0.000	
598	  UZ	-1.852	5.832	1.856	O.3	13	HIS13	0.000	
599	  V0	-0.852	-1.168	0.856	O.3	13	HIS13	0.000	
600	  V1	-0.852	-1.168	1.856	O.3	13	HIS13	0.000	
601	  V2	-0.852	-1.168	2.856	O.3	13	HIS13	0.000	
602	  V3	-0.852	-1.168	3.856	O.3	13	HIS13	0.000	
603	  V4	-0.852	-1.168	4.856	O.3	13	HIS13	0.000	
604	  V5	-0.852	-0.168	-3.144	O.3	13	HIS13	0.000	
605	  V8	-0.852	-0.168	-0.144	O.3	13	HIS13	0.000	
606	  Va	-0.852	-4.168	1.856	O.3	13	HIS13	0.000	
607	  Vb	-0.852	-4.168	2.856	O.3	13	HIS13	0.000	
608	  Vc	-0.852	-4.168	3.856	O.3	13	HIS13	0.000	
609	  VD	-0.852	-6.168	-3.144	O.3	13	HIS13	0.000	
610	  Vd	-0.852	-4.168	4.856	O.3	13	HIS13	0.000	
611	  VF	-0.852	-6.168	-1.144	O.3	13	HIS13	0.000	
612	  VG	-0.852	-6.168	-0.144	O.3	13	HIS13	0.000	
613	  VH	-0.852	-6.168	0.856	O.3	13	HIS13	0.000	
614	  Vi	-0.852	-3.168	0.856	O.3	13	HIS13	0.000	
615	  Vj	-0.852	-3.168	1.856	O.3	13	HIS13	0.000	
616	  Vk	-0.852	-3.168	2.856	O.3	13	HIS13	0.000	
617	  Vl	-0.852	-3.168	3.856	O.3	13	HIS13	0.000	
618	  Vm	-0.852	-3.168	4.856	O.3	13	HIS13	0.000	
619	  VP	-0.852	-5.168	-0.144	O.3	13	HIS13	0.000	
620	  VQ	-0.852	-5.168	0.856	O.3	13	HIS13	0.000	
621	  VR	-0.852	-5.168	1.856	O.3	13	HIS13	0.000	
622	  Vs	-0.852	-2.168	1.856	O.3	13	HIS13	0.000	
623	  Vt	-0.852	-2.168	2.856	O.3	13	HIS13	0.000	
624	  Vu	-0.852	-2.168	3.856	O.3	13	HIS13	0.000	
625	  Vv	-0.852	-2.168	4.856	O.3	13	HIS13	0.000	
626	  Vw	-0.852	-1.168	-3.144	O.3	13	HIS13	0.000	
627	  VY	-0.852	-4.168	-0.144	O.3	13	HIS13	0.000	
628	  VZ	-0.852	-4.168	0.856	O.3	13	HIS13	0.000	
629	  V+	-0.852	-0.168	1.856	O.3	14	HIS14	0.000	
630	  V9	-0.852	-0.168	0.856	O.3	14	HIS14	0.000	
631	  W+	-0.852	6.832	0.856	O.3	14	HIS14	0.000	
632	  W0	-0.852	5.832	-0.144	O.3	14	HIS14	0.000	
633	  W1	-0.852	5.832	0.856	O.3	14	HIS14	0.000	
634	  W2	-0.852	5.832	1.856	O.3	14	HIS14	0.000	
635	  W3	-0.852	5.832	2.856	O.3	14	HIS14	0.000	
636	  W4	-0.852	5.832	3.856	O.3	14	HIS14	0.000	
637	  W5	-0.852	5.832	4.856	O.3	14	HIS14	0.000	
638	  W9	-0.852	6.832	-0.144	O.3	14	HIS14	0.000	
639	  Wa	-0.852	2.832	0.856	O.3	14	HIS14	0.000	
640	  WB	-0.852	-0.168	2.856	O.3	14	HIS14	0.000	
641	  Wb	-0.852	2.832	1.856	O.3	14	HIS14	0.000	
642	  WC	-0.852	-0.168	3.856	O.3	14	HIS14	0.000	
643	  Wc	-0.852	2.832	2.856	O.3	14	HIS14	0.000	
644	  WD	-0.852	-0.168	4.856	O.3	14	HIS14	0.000	
645	  Wd	-0.852	2.832	3.856	O.3	14	HIS14	0.000	
646	  WE	-0.852	0.832	-3.144	O.3	14	HIS14	0.000	
647	  We	-0.852	2.832	4.856	O.3	14	HIS14	0.000	
648	  WF	-0.852	0.832	-2.144	O.3	14	HIS14	0.000	
649	  WG	-0.852	0.832	-1.144	O.3	14	HIS14	0.000	
650	  Wg	-0.852	3.832	-2.144	O.3	14	HIS14	0.000	
651	  WH	-0.852	0.832	-0.144	O.3	14	HIS14	0.000	
652	  Wh	-0.852	3.832	-1.144	O.3	14	HIS14	0.000	
653	  WI	-0.852	0.832	0.856	O.3	14	HIS14	0.000	
654	  Wi	-0.852	3.832	-0.144	O.3	14	HIS14	0.000	
655	  WJ	-0.852	0.832	1.856	O.3	14	HIS14	0.000	
656	  Wj	-0.852	3.832	0.856	O.3	14	HIS14	0.000	
657	  WK	-0.852	0.832	2.856	O.3	14	HIS14	0.000	
658	  Wk	-0.852	3.832	1.856	O.3	14	HIS14	0.000	
659	  WL	-0.852	0.832	3.856	O.3	14	HIS14	0.000	
660	  Wl	-0.852	3.832	2.856	O.3	14	HIS14	0.000	
661	  WM	-0.852	0.832	4.856	O.3	14	HIS14	0.000	
662	  Wm	-0.852	3.832	3.856	O.3	14	HIS14	0.000	
663	  WO	-0.852	1.832	-2.144	O.3	14	HIS14	0.000	
664	  WP	-0.852	1.832	-1.144	O.3	14	HIS14	0.000	
665	  Wp	-0.852	4.832	-2.144	O.3	14	HIS14	0.000	
666	  WQ	-0.852	1.832	-0.144	O.3	14	HIS14	0.000	
667	  Wq	-0.852	4.832	-1.144	O.3	14	HIS14	0.000	
668	  WR	-0.852	1.832	0.856	O.3	14	HIS14	0.000	
669	  Wr	-0.852	4.832	-0.144	O.3	14	HIS14	0.000	
670	  WS	-0.852	1.832	1.856	O.3	14	HIS14	0.000	
671	  Ws	-0.852	4.832	0.856	O.3	14	HIS14	0.000	
672	  WT	-0.852	1.832	2.856	O.3	14	HIS14	0.000	
673	  Wt	-0.852	4.832	1.856	O.3	14	HIS14	0.000	
674	  WU	-0.852	1.832	3.856	O.3	14	HIS14	0.000	
675	  Wu	-0.852	4.832	2.856	O.3	14	HIS14	0.000	
676	  WV	-0.852	1.832	4.856	O.3	14	HIS14	0.000	
677	  Wv	-0.852	4.832	3.856	O.3	14	HIS14	0.000	
678	  Ww	-0.852	4.832	4.856	O.3	14	HIS14	0.000	
679	  WX	-0.852	2.832	-2.144	O.3	14	HIS14	0.000	
680	  WY	-0.852	2.832	-1.144	O.3	14	HIS14	0.000	
681	  WZ	-0.852	2.832	-0.144	O.3	14	HIS14	0.000	
682	  XB	-0.852	6.832	1.856	O.3	14	HIS14	0.000	
683	  Xb	0.148	-7.168	0.856	O.3	14	HIS14	0.000	
684	  XC	-0.852	6.832	2.856	O.3	14	HIS14	0.000	
685	  Xc	0.148	-7.168	1.856	O.3	14	HIS14	0.000	
686	  XD	-0.852	6.832	3.856	O.3	14	HIS14	0.000	
687	  XE	-0.852	6.832	4.856	O.3	14	HIS14	0.000	
688	  Xg	0.148	-6.168	-3.144	O.3	14	HIS14	0.000	
689	  Xh	0.148	-6.168	-2.144	O.3	14	HIS14	0.000	
690	  XI	-0.852	7.832	-0.144	O.3	14	HIS14	0.000	
691	  XJ	-0.852	7.832	0.856	O.3	14	HIS14	0.000	
692	  Xj	0.148	-6.168	-0.144	O.3	14	HIS14	0.000	
693	  XK	-0.852	7.832	1.856	O.3	14	HIS14	0.000	
694	  Xk	0.148	-6.168	0.856	O.3	14	HIS14	0.000	
695	  XL	-0.852	7.832	2.856	O.3	14	HIS14	0.000	
696	  XM	-0.852	7.832	3.856	O.3	14	HIS14	0.000	
697	  XN	-0.852	7.832	4.856	O.3	14	HIS14	0.000	
698	  XO	0.148	-8.168	-3.144	O.3	14	HIS14	0.000	
699	  XP	0.148	-8.168	-2.144	O.3	14	HIS14	0.000	
700	  XX	0.148	-7.168	-3.144	O.3	14	HIS14	0.000	
701	  X1	0.148	-4.168	-0.144	O.3	15	HIS15	0.000	
702	  X2	0.148	-4.168	0.856	O.3	15	HIS15	0.000	
703	  X3	0.148	-4.168	1.856	O.3	15	HIS15	0.000	
704	  X4	0.148	-4.168	2.856	O.3	15	HIS15	0.000	
705	  X5	0.148	-4.168	3.856	O.3	15	HIS15	0.000	
706	  X6	0.148	-4.168	4.856	O.3	15	HIS15	0.000	
707	  Xl	0.148	-6.168	1.856	O.3	15	HIS15	0.000	
708	  Xp	0.148	-5.168	-3.144	O.3	15	HIS15	0.000	
709	  Xr	0.148	-5.168	-1.144	O.3	15	HIS15	0.000	
710	  Xs	0.148	-5.168	-0.144	O.3	15	HIS15	0.000	
711	  Xt	0.148	-5.168	0.856	O.3	15	HIS15	0.000	
712	  Xu	0.148	-5.168	1.856	O.3	15	HIS15	0.000	
713	  Xv	0.148	-5.168	2.856	O.3	15	HIS15	0.000	
714	  Xw	0.148	-5.168	3.856	O.3	15	HIS15	0.000	
715	  Xx	0.148	-5.168	4.856	O.3	15	HIS15	0.000	
716	  Y+	0.148	3.832	-1.144	O.3	15	HIS15	0.000	
717	  Y1	0.148	2.832	-1.144	O.3	15	HIS15	0.000	
718	  Y2	0.148	2.832	-0.144	O.3	15	HIS15	0.000	
719	  Y3	0.148	2.832	0.856	O.3	15	HIS15	0.000	
720	  Y4	0.148	2.832	1.856	O.3	15	HIS15	0.000	
721	  Y5	0.148	2.832	2.856	O.3	15	HIS15	0.000	
722	  Y6	0.148	2.832	3.856	O.3	15	HIS15	0.000	
723	  Y7	0.148	2.832	4.856	O.3	15	HIS15	0.000	
724	  Y9	0.148	3.832	-2.144	O.3	15	HIS15	0.000	
725	  YB	0.148	-3.168	0.856	O.3	15	HIS15	0.000	
726	  Yb	0.148	-0.168	-0.144	O.3	15	HIS15	0.000	
727	  YC	0.148	-3.168	1.856	O.3	15	HIS15	0.000	
728	  Yc	0.148	-0.168	0.856	O.3	15	HIS15	0.000	
729	  YD	0.148	-3.168	2.856	O.3	15	HIS15	0.000	
730	  Yd	0.148	-0.168	1.856	O.3	15	HIS15	0.000	
731	  YE	0.148	-3.168	3.856	O.3	15	HIS15	0.000	
732	  Ye	0.148	-0.168	2.856	O.3	15	HIS15	0.000	
733	  YF	0.148	-3.168	4.856	O.3	15	HIS15	0.000	
734	  Yf	0.148	-0.168	3.856	O.3	15	HIS15	0.000	
735	  Yg	0.148	-0.168	4.856	O.3	15	HIS15	0.000	
736	  Yh	0.148	0.832	-3.144	O.3	15	HIS15	0.000	
737	  Yj	0.148	0.832	-1.144	O.3	15	HIS15	0.000	
738	  Yk	0.148	0.832	-0.144	O.3	15	HIS15	0.000	
739	  YL	0.148	-2.168	1.856	O.3	15	HIS15	0.000	
740	  Yl	0.148	0.832	0.856	O.3	15	HIS15	0.000	
741	  YM	0.148	-2.168	2.856	O.3	15	HIS15	0.000	
742	  Ym	0.148	0.832	1.856	O.3	15	HIS15	0.000	
743	  YN	0.148	-2.168	3.856	O.3	15	HIS15	0.000	
744	  Yn	0.148	0.832	2.856	O.3	15	HIS15	0.000	
745	  YO	0.148	-2.168	4.856	O.3	15	HIS15	0.000	
746	  Yo	0.148	0.832	3.856	O.3	15	HIS15	0.000	
747	  YP	0.148	-1.168	-3.144	O.3	15	HIS15	0.000	
748	  Yp	0.148	0.832	4.856	O.3	15	HIS15	0.000	
749	  Ys	0.148	1.832	-1.144	O.3	15	HIS15	0.000	
750	  YT	0.148	-1.168	0.856	O.3	15	HIS15	0.000	
751	  Yt	0.148	1.832	-0.144	O.3	15	HIS15	0.000	
752	  YU	0.148	-1.168	1.856	O.3	15	HIS15	0.000	
753	  Yu	0.148	1.832	0.856	O.3	15	HIS15	0.000	
754	  YV	0.148	-1.168	2.856	O.3	15	HIS15	0.000	
755	  Yv	0.148	1.832	1.856	O.3	15	HIS15	0.000	
756	  YW	0.148	-1.168	3.856	O.3	15	HIS15	0.000	
757	  Yw	0.148	1.832	2.856	O.3	15	HIS15	0.000	
758	  YX	0.148	-1.168	4.856	O.3	15	HIS15	0.000	
759	  Yx	0.148	1.832	3.856	O.3	15	HIS15	0.000	
760	  Yy	0.148	1.832	4.856	O.3	15	HIS15	0.000	
761	  ZB	0.148	3.832	-0.144	O.3	15	HIS15	0.000	
762	  ZC	0.148	3.832	0.856	O.3	15	HIS15	0.000	
763	  ZD	0.148	3.832	1.856	O.3	15	HIS15	0.000	
764	  ZE	0.148	3.832	2.856	O.3	15	HIS15	0.000	
765	  ZF	0.148	3.832	3.856	O.3	15	HIS15	0.000	
766	  ZG	0.148	3.832	4.856	O.3	15	HIS15	0.000	
767	  ZI	0.148	4.832	-2.144	O.3	15	HIS15	0.000	
768	  ZJ	0.148	4.832	-1.144	O.3	15	HIS15	0.000	
769	  ZK	0.148	4.832	-0.144	O.3	15	HIS15	0.000	
770	  ZL	0.148	4.832	0.856	O.3	15	HIS15	0.000	
771	  ZM	0.148	4.832	1.856	O.3	15	HIS15	0.000	
772	  aB	1.148	-6.168	-1.144	O.3	16	HIS16	0.000	
773	  aC	1.148	-6.168	-0.144	O.3	16	HIS16	0.000	
774	  aD	1.148	-6.168	0.856	O.3	16	HIS16	0.000	
775	  ad	1.148	-3.168	-0.144	O.3	16	HIS16	0.000	
776	  aE	1.148	-6.168	1.856	O.3	16	HIS16	0.000	
777	  ae	1.148	-3.168	0.856	O.3	16	HIS16	0.000	
778	  aF	1.148	-6.168	2.856	O.3	16	HIS16	0.000	
779	  af	1.148	-3.168	1.856	O.3	16	HIS16	0.000	
780	  aG	1.148	-6.168	3.856	O.3	16	HIS16	0.000	
781	  ag	1.148	-3.168	2.856	O.3	16	HIS16	0.000	
782	  aH	1.148	-6.168	4.856	O.3	16	HIS16	0.000	
783	  ah	1.148	-3.168	3.856	O.3	16	HIS16	0.000	
784	  aI	1.148	-5.168	-3.144	O.3	16	HIS16	0.000	
785	  ai	1.148	-3.168	4.856	O.3	16	HIS16	0.000	
786	  aJ	1.148	-5.168	-2.144	O.3	16	HIS16	0.000	
787	  aK	1.148	-5.168	-1.144	O.3	16	HIS16	0.000	
788	  aL	1.148	-5.168	-0.144	O.3	16	HIS16	0.000	
789	  aM	1.148	-5.168	0.856	O.3	16	HIS16	0.000	
790	  aN	1.148	-5.168	1.856	O.3	16	HIS16	0.000	
791	  an	1.148	-2.168	0.856	O.3	16	HIS16	0.000	
792	  aO	1.148	-5.168	2.856	O.3	16	HIS16	0.000	
793	  ao	1.148	-2.168	1.856	O.3	16	HIS16	0.000	
794	  aP	1.148	-5.168	3.856	O.3	16	HIS16	0.000	
795	  ap	1.148	-2.168	2.856	O.3	16	HIS16	0.000	
796	  aQ	1.148	-5.168	4.856	O.3	16	HIS16	0.000	
797	  aq	1.148	-2.168	3.856	O.3	16	HIS16	0.000	
798	  ar	1.148	-2.168	4.856	O.3	16	HIS16	0.000	
799	  as	1.148	-1.168	-3.144	O.3	16	HIS16	0.000	
800	  aU	1.148	-4.168	-0.144	O.3	16	HIS16	0.000	
801	  au	1.148	-1.168	-1.144	O.3	16	HIS16	0.000	
802	  aV	1.148	-4.168	0.856	O.3	16	HIS16	0.000	
803	  av	1.148	-1.168	-0.144	O.3	16	HIS16	0.000	
804	  aW	1.148	-4.168	1.856	O.3	16	HIS16	0.000	
805	  aw	1.148	-1.168	0.856	O.3	16	HIS16	0.000	
806	  aX	1.148	-4.168	2.856	O.3	16	HIS16	0.000	
807	  ax	1.148	-1.168	1.856	O.3	16	HIS16	0.000	
808	  aY	1.148	-4.168	3.856	O.3	16	HIS16	0.000	
809	  ay	1.148	-1.168	2.856	O.3	16	HIS16	0.000	
810	  aZ	1.148	-4.168	4.856	O.3	16	HIS16	0.000	
811	  Z+	1.148	-6.168	-2.144	O.3	16	HIS16	0.000	
812	  Z0	1.148	-7.168	-3.144	O.3	16	HIS16	0.000	
813	  Z4	1.148	-7.168	0.856	O.3	16	HIS16	0.000	
814	  Z5	1.148	-7.168	1.856	O.3	16	HIS16	0.000	
815	  Z6	1.148	-7.168	2.856	O.3	16	HIS16	0.000	
816	  Z8	1.148	-7.168	4.856	O.3	16	HIS16	0.000	
817	  Z9	1.148	-6.168	-3.144	O.3	16	HIS16	0.000	
818	  Zb	0.148	6.832	-1.144	O.3	16	HIS16	0.000	
819	  Zc	0.148	6.832	-0.144	O.3	16	HIS16	0.000	
820	  Zd	0.148	6.832	0.856	O.3	16	HIS16	0.000	
821	  Ze	0.148	6.832	1.856	O.3	16	HIS16	0.000	
822	  Zf	0.148	6.832	2.856	O.3	16	HIS16	0.000	
823	  Zg	0.148	6.832	3.856	O.3	16	HIS16	0.000	
824	  Zh	0.148	6.832	4.856	O.3	16	HIS16	0.000	
825	  Zl	0.148	7.832	-0.144	O.3	16	HIS16	0.000	
826	  Zm	0.148	7.832	0.856	O.3	16	HIS16	0.000	
827	  ZN	0.148	4.832	2.856	O.3	16	HIS16	0.000	
828	  Zn	0.148	7.832	1.856	O.3	16	HIS16	0.000	
829	  ZO	0.148	4.832	3.856	O.3	16	HIS16	0.000	
830	  Zo	0.148	7.832	2.856	O.3	16	HIS16	0.000	
831	  ZP	0.148	4.832	4.856	O.3	16	HIS16	0.000	
832	  Zp	0.148	7.832	3.856	O.3	16	HIS16	0.000	
833	  Zq	0.148	7.832	4.856	O.3	16	HIS16	0.000	
834	  ZR	0.148	5.832	-2.144	O.3	16	HIS16	0.000	
835	  Zr	1.148	-8.168	-3.144	O.3	16	HIS16	0.000	
836	  ZS	0.148	5.832	-1.144	O.3	16	HIS16	0.000	
837	  ZT	0.148	5.832	-0.144	O.3	16	HIS16	0.000	
838	  ZU	0.148	5.832	0.856	O.3	16	HIS16	0.000	
839	  ZV	0.148	5.832	1.856	O.3	16	HIS16	0.000	
840	  ZW	0.148	5.832	2.856	O.3	16	HIS16	0.000	
841	  Zw	1.148	-8.168	1.856	O.3	16	HIS16	0.000	
842	  ZX	0.148	5.832	3.856	O.3	16	HIS16	0.000	
843	  Zx	1.148	-8.168	2.856	O.3	16	HIS16	0.000	
844	  ZY	0.148	5.832	4.856	O.3	16	HIS16	0.000	
845	  ZZ	0.148	6.832	-3.144	O.3	16	HIS16	0.000	
846	  Zz	1.148	-8.168	4.856	O.3	16	HIS16	0.000	
847	  a+	1.148	0.832	-3.144	O.3	17	HIS17	0.000	
848	  a0	1.148	-1.168	4.856	O.3	17	HIS17	0.000	
849	  a1	1.148	-0.168	-3.144	O.3	17	HIS17	0.000	
850	  a3	1.148	-0.168	-1.144	O.3	17	HIS17	0.000	
851	  a4	1.148	-0.168	-0.144	O.3	17	HIS17	0.000	
852	  a5	1.148	-0.168	0.856	O.3	17	HIS17	0.000	
853	  a6	1.148	-0.168	1.856	O.3	17	HIS17	0.000	
854	  a7	1.148	-0.168	2.856	O.3	17	HIS17	0.000	
855	  a8	1.148	-0.168	3.856	O.3	17	HIS17	0.000	
856	  a9	1.148	-0.168	4.856	O.3	17	HIS17	0.000	
857	  az	1.148	-1.168	3.856	O.3	17	HIS17	0.000	
858	  b+	1.148	6.832	4.856	O.3	17	HIS17	0.000	
859	  b0	1.148	5.832	3.856	O.3	17	HIS17	0.000	
860	  b1	1.148	5.832	4.856	O.3	17	HIS17	0.000	
861	  b4	1.148	6.832	-1.144	O.3	17	HIS17	0.000	
862	  b5	1.148	6.832	-0.144	O.3	17	HIS17	0.000	
863	  b6	1.148	6.832	0.856	O.3	17	HIS17	0.000	
864	  b7	1.148	6.832	1.856	O.3	17	HIS17	0.000	
865	  b8	1.148	6.832	2.856	O.3	17	HIS17	0.000	
866	  b9	1.148	6.832	3.856	O.3	17	HIS17	0.000	
867	  ba	1.148	2.832	4.856	O.3	17	HIS17	0.000	
868	  bC	1.148	0.832	-1.144	O.3	17	HIS17	0.000	
869	  bc	1.148	3.832	-2.144	O.3	17	HIS17	0.000	
870	  bD	1.148	0.832	-0.144	O.3	17	HIS17	0.000	
871	  bd	1.148	3.832	-1.144	O.3	17	HIS17	0.000	
872	  bE	1.148	0.832	0.856	O.3	17	HIS17	0.000	
873	  be	1.148	3.832	-0.144	O.3	17	HIS17	0.000	
874	  bF	1.148	0.832	1.856	O.3	17	HIS17	0.000	
875	  bf	1.148	3.832	0.856	O.3	17	HIS17	0.000	
876	  bG	1.148	0.832	2.856	O.3	17	HIS17	0.000	
877	  bg	1.148	3.832	1.856	O.3	17	HIS17	0.000	
878	  bH	1.148	0.832	3.856	O.3	17	HIS17	0.000	
879	  bh	1.148	3.832	2.856	O.3	17	HIS17	0.000	
880	  bI	1.148	0.832	4.856	O.3	17	HIS17	0.000	
881	  bi	1.148	3.832	3.856	O.3	17	HIS17	0.000	
882	  bj	1.148	3.832	4.856	O.3	17	HIS17	0.000	
883	  bM	1.148	1.832	-0.144	O.3	17	HIS17	0.000	
884	  bm	1.148	4.832	-1.144	O.3	17	HIS17	0.000	
885	  bN	1.148	1.832	0.856	O.3	17	HIS17	0.000	
886	  bn	1.148	4.832	-0.144	O.3	17	HIS17	0.000	
887	  bO	1.148	1.832	1.856	O.3	17	HIS17	0.000	
888	  bo	1.148	4.832	0.856	O.3	17	HIS17	0.000	
889	  bP	1.148	1.832	2.856	O.3	17	HIS17	0.000	
890	  bp	1.148	4.832	1.856	O.3	17	HIS17	0.000	
891	  bQ	1.148	1.832	3.856	O.3	17	HIS17	0.000	
892	  bq	1.148	4.832	2.856	O.3	17	HIS17	0.000	
893	  bR	1.148	1.832	4.856	O.3	17	HIS17	0.000	
894	  br	1.148	4.832	3.856	O.3	17	HIS17	0.000	
895	  bs	1.148	4.832	4.856	O.3	17	HIS17	0.000	
896	  bU	1.148	2.832	-1.144	O.3	17	HIS17	0.000	
897	  bu	1.148	5.832	-2.144	O.3	17	HIS17	0.000	
898	  bV	1.148	2.832	-0.144	O.3	17	HIS17	0.000	
899	  bv	1.148	5.832	-1.144	O.3	17	HIS17	0.000	
900	  bW	1.148	2.832	0.856	O.3	17	HIS17	0.000	
901	  bw	1.148	5.832	-0.144	O.3	17	HIS17	0.000	
902	  bX	1.148	2.832	1.856	O.3	17	HIS17	0.000	
903	  bx	1.148	5.832	0.856	O.3	17	HIS17	0.000	
904	  bY	1.148	2.832	2.856	O.3	17	HIS17	0.000	
905	  by	1.148	5.832	1.856	O.3	17	HIS17	0.000	
906	  bZ	1.148	2.832	3.856	O.3	17	HIS17	0.000	
907	  bz	1.148	5.832	2.856	O.3	17	HIS17	0.000	
908	  ca	2.148	-7.168	3.856	O.3	17	HIS17	0.000	
909	  cD	1.148	7.832	-1.144	O.3	17	HIS17	0.000	
910	  cE	1.148	7.832	-0.144	O.3	17	HIS17	0.000	
911	  cF	1.148	7.832	0.856	O.3	17	HIS17	0.000	
912	  cG	1.148	7.832	1.856	O.3	17	HIS17	0.000	
913	  cH	1.148	7.832	2.856	O.3	17	HIS17	0.000	
914	  cI	1.148	7.832	3.856	O.3	17	HIS17	0.000	
915	  cJ	1.148	7.832	4.856	O.3	17	HIS17	0.000	
916	  cQ	2.148	-8.168	2.856	O.3	17	HIS17	0.000	
917	  cR	2.148	-8.168	3.856	O.3	17	HIS17	0.000	
918	  cS	2.148	-8.168	4.856	O.3	17	HIS17	0.000	
919	  cT	2.148	-7.168	-3.144	O.3	17	HIS17	0.000	
920	  cZ	2.148	-7.168	2.856	O.3	17	HIS17	0.000	
921	  c+	2.148	-3.168	3.856	O.3	18	HIS18	0.000	
922	  c0	2.148	-4.168	2.856	O.3	18	HIS18	0.000	
923	  c1	2.148	-4.168	3.856	O.3	18	HIS18	0.000	
924	  c2	2.148	-4.168	4.856	O.3	18	HIS18	0.000	
925	  c6	2.148	-3.168	-0.144	O.3	18	HIS18	0.000	
926	  c7	2.148	-3.168	0.856	O.3	18	HIS18	0.000	
927	  c8	2.148	-3.168	1.856	O.3	18	HIS18	0.000	
928	  c9	2.148	-3.168	2.856	O.3	18	HIS18	0.000	
929	  cb	2.148	-7.168	4.856	O.3	18	HIS18	0.000	
930	  cc	2.148	-6.168	-3.144	O.3	18	HIS18	0.000	
931	  cf	2.148	-6.168	-0.144	O.3	18	HIS18	0.000	
932	  cg	2.148	-6.168	0.856	O.3	18	HIS18	0.000	
933	  ch	2.148	-6.168	1.856	O.3	18	HIS18	0.000	
934	  ci	2.148	-6.168	2.856	O.3	18	HIS18	0.000	
935	  cj	2.148	-6.168	3.856	O.3	18	HIS18	0.000	
936	  ck	2.148	-6.168	4.856	O.3	18	HIS18	0.000	
937	  cm	2.148	-5.168	-2.144	O.3	18	HIS18	0.000	
938	  co	2.148	-5.168	-0.144	O.3	18	HIS18	0.000	
939	  cp	2.148	-5.168	0.856	O.3	18	HIS18	0.000	
940	  cq	2.148	-5.168	1.856	O.3	18	HIS18	0.000	
941	  cr	2.148	-5.168	2.856	O.3	18	HIS18	0.000	
942	  cs	2.148	-5.168	3.856	O.3	18	HIS18	0.000	
943	  ct	2.148	-5.168	4.856	O.3	18	HIS18	0.000	
944	  cu	2.148	-4.168	-3.144	O.3	18	HIS18	0.000	
945	  cy	2.148	-4.168	0.856	O.3	18	HIS18	0.000	
946	  cz	2.148	-4.168	1.856	O.3	18	HIS18	0.000	
947	  d+	2.148	3.832	2.856	O.3	18	HIS18	0.000	
948	  d0	2.148	2.832	1.856	O.3	18	HIS18	0.000	
949	  d1	2.148	2.832	2.856	O.3	18	HIS18	0.000	
950	  d2	2.148	2.832	3.856	O.3	18	HIS18	0.000	
951	  d3	2.148	2.832	4.856	O.3	18	HIS18	0.000	
952	  d5	2.148	3.832	-2.144	O.3	18	HIS18	0.000	
953	  d6	2.148	3.832	-1.144	O.3	18	HIS18	0.000	
954	  d7	2.148	3.832	-0.144	O.3	18	HIS18	0.000	
955	  d8	2.148	3.832	0.856	O.3	18	HIS18	0.000	
956	  d9	2.148	3.832	1.856	O.3	18	HIS18	0.000	
957	  da	2.148	-0.168	2.856	O.3	18	HIS18	0.000	
958	  dB	2.148	-3.168	4.856	O.3	18	HIS18	0.000	
959	  db	2.148	-0.168	3.856	O.3	18	HIS18	0.000	
960	  dc	2.148	-0.168	4.856	O.3	18	HIS18	0.000	
961	  dd	2.148	0.832	-3.144	O.3	18	HIS18	0.000	
962	  de	2.148	0.832	-2.144	O.3	18	HIS18	0.000	
963	  df	2.148	0.832	-1.144	O.3	18	HIS18	0.000	
964	  dG	2.148	-2.168	0.856	O.3	18	HIS18	0.000	
965	  dg	2.148	0.832	-0.144	O.3	18	HIS18	0.000	
966	  dH	2.148	-2.168	1.856	O.3	18	HIS18	0.000	
967	  dh	2.148	0.832	0.856	O.3	18	HIS18	0.000	
968	  dI	2.148	-2.168	2.856	O.3	18	HIS18	0.000	
969	  di	2.148	0.832	1.856	O.3	18	HIS18	0.000	
970	  dJ	2.148	-2.168	3.856	O.3	18	HIS18	0.000	
971	  dj	2.148	0.832	2.856	O.3	18	HIS18	0.000	
972	  dK	2.148	-2.168	4.856	O.3	18	HIS18	0.000	
973	  dk	2.148	0.832	3.856	O.3	18	HIS18	0.000	
974	  dl	2.148	0.832	4.856	O.3	18	HIS18	0.000	
975	  dm	2.148	1.832	-3.144	O.3	18	HIS18	0.000	
976	  dO	2.148	-1.168	-0.144	O.3	18	HIS18	0.000	
977	  do	2.148	1.832	-1.144	O.3	18	HIS18	0.000	
978	  dp	2.148	1.832	-0.144	O.3	18	HIS18	0.000	
979	  dQ	2.148	-1.168	1.856	O.3	18	HIS18	0.000	
980	  dq	2.148	1.832	0.856	O.3	18	HIS18	0.000	
981	  dR	2.148	-1.168	2.856	O.3	18	HIS18	0.000	
982	  dr	2.148	1.832	1.856	O.3	18	HIS18	0.000	
983	  dS	2.148	-1.168	3.856	O.3	18	HIS18	0.000	
984	  ds	2.148	1.832	2.856	O.3	18	HIS18	0.000	
985	  dT	2.148	-1.168	4.856	O.3	18	HIS18	0.000	
986	  dt	2.148	1.832	3.856	O.3	18	HIS18	0.000	
987	  dU	2.148	-0.168	-3.144	O.3	18	HIS18	0.000	
988	  du	2.148	1.832	4.856	O.3	18	HIS18	0.000	
989	  dv	2.148	2.832	-3.144	O.3	18	HIS18	0.000	
990	  dW	2.148	-0.168	-1.144	O.3	18	HIS18	0.000	
991	  dw	2.148	2.832	-2.144	O.3	18	HIS18	0.000	
992	  dX	2.148	-0.168	-0.144	O.3	18	HIS18	0.000	
993	  dx	2.148	2.832	-1.144	O.3	18	HIS18	0.000	
994	  dY	2.148	-0.168	0.856	O.3	18	HIS18	0.000	
995	  dy	2.148	2.832	-0.144	O.3	18	HIS18	0.000	
996	  dZ	2.148	-0.168	1.856	O.3	18	HIS18	0.000	
997	  dz	2.148	2.832	0.856	O.3	18	HIS18	0.000	
998	  eB	2.148	3.832	3.856	O.3	18	HIS18	0.000	
999	  eC	2.148	3.832	4.856	O.3	18	HIS18	0.000	
1000	  e+	3.148	-6.168	1.856	O.3	19	HIS19	0.000	
1001	  e2	3.148	-7.168	2.856	O.3	19	HIS19	0.000	
1002	  e3	3.148	-7.168	3.856	O.3	19	HIS19	0.000	
1003	  e4	3.148	-7.168	4.856	O.3	19	HIS19	0.000	
1004	  e7	3.148	-6.168	-1.144	O.3	19	HIS19	0.000	
1005	  e8	3.148	-6.168	-0.144	O.3	19	HIS19	0.000	
1006	  ea	2.148	6.832	1.856	O.3	19	HIS19	0.000	
1007	  eb	2.148	6.832	2.856	O.3	19	HIS19	0.000	
1008	  ec	2.148	6.832	3.856	O.3	19	HIS19	0.000	
1009	  ed	2.148	6.832	4.856	O.3	19	HIS19	0.000	
1010	  eE	2.148	4.832	-2.144	O.3	19	HIS19	0.000	
1011	  eF	2.148	4.832	-1.144	O.3	19	HIS19	0.000	
1012	  eG	2.148	4.832	-0.144	O.3	19	HIS19	0.000	
1013	  eH	2.148	4.832	0.856	O.3	19	HIS19	0.000	
1014	  eh	2.148	7.832	-0.144	O.3	19	HIS19	0.000	
1015	  eI	2.148	4.832	1.856	O.3	19	HIS19	0.000	
1016	  ei	2.148	7.832	0.856	O.3	19	HIS19	0.000	
1017	  eJ	2.148	4.832	2.856	O.3	19	HIS19	0.000	
1018	  ej	2.148	7.832	1.856	O.3	19	HIS19	0.000	
1019	  eK	2.148	4.832	3.856	O.3	19	HIS19	0.000	
1020	  ek	2.148	7.832	2.856	O.3	19	HIS19	0.000	
1021	  eL	2.148	4.832	4.856	O.3	19	HIS19	0.000	
1022	  el	2.148	7.832	3.856	O.3	19	HIS19	0.000	
1023	  em	2.148	7.832	4.856	O.3	19	HIS19	0.000	
1024	  eO	2.148	5.832	-1.144	O.3	19	HIS19	0.000	
1025	  eP	2.148	5.832	-0.144	O.3	19	HIS19	0.000	
1026	  eQ	2.148	5.832	0.856	O.3	19	HIS19	0.000	
1027	  eR	2.148	5.832	1.856	O.3	19	HIS19	0.000	
1028	  eS	2.148	5.832	2.856	O.3	19	HIS19	0.000	
1029	  eT	2.148	5.832	3.856	O.3	19	HIS19	0.000	
1030	  eU	2.148	5.832	4.856	O.3	19	HIS19	0.000	
1031	  eu	3.148	-8.168	3.856	O.3	19	HIS19	0.000	
1032	  ev	3.148	-8.168	4.856	O.3	19	HIS19	0.000	
1033	  eY	2.148	6.832	-0.144	O.3	19	HIS19	0.000	
1034	  eZ	2.148	6.832	0.856	O.3	19	HIS19	0.000	
1035	  fa	3.148	-3.168	0.856	O.3	19	HIS19	0.000	
1036	  fB	3.148	-6.168	2.856	O.3	19	HIS19	0.000	
1037	  fC	3.148	-6.168	3.856	O.3	19	HIS19	0.000	
1038	  fc	3.148	-3.168	2.856	O.3	19	HIS19	0.000	
1039	  fD	3.148	-6.168	4.856	O.3	19	HIS19	0.000	
1040	  fd	3.148	-3.168	3.856	O.3	19	HIS19	0.000	
1041	  fe	3.148	-3.168	4.856	O.3	19	HIS19	0.000	
1042	  fG	3.148	-5.168	-1.144	O.3	19	HIS19	0.000	
1043	  fH	3.148	-5.168	-0.144	O.3	19	HIS19	0.000	
1044	  fI	3.148	-5.168	0.856	O.3	19	HIS19	0.000	
1045	  fJ	3.148	-5.168	1.856	O.3	19	HIS19	0.000	
1046	  fK	3.148	-5.168	2.856	O.3	19	HIS19	0.000	
1047	  fk	3.148	-2.168	1.856	O.3	19	HIS19	0.000	
1048	  fL	3.148	-5.168	3.856	O.3	19	HIS19	0.000	
1049	  fl	3.148	-2.168	2.856	O.3	19	HIS19	0.000	
1050	  fM	3.148	-5.168	4.856	O.3	19	HIS19	0.000	
1051	  fm	3.148	-2.168	3.856	O.3	19	HIS19	0.000	
1052	  fn	3.148	-2.168	4.856	O.3	19	HIS19	0.000	
1053	  fQ	3.148	-4.168	-0.144	O.3	19	HIS19	0.000	
1054	  fR	3.148	-4.168	0.856	O.3	19	HIS19	0.000	
1055	  fS	3.148	-4.168	1.856	O.3	19	HIS19	0.000	
1056	  fT	3.148	-4.168	2.856	O.3	19	HIS19	0.000	
1057	  fU	3.148	-4.168	3.856	O.3	19	HIS19	0.000	
1058	  f+	3.148	0.832	0.856	O.3	20	HIS20	0.000	
1059	  f0	3.148	-0.168	-0.144	O.3	20	HIS20	0.000	
1060	  f2	3.148	-0.168	1.856	O.3	20	HIS20	0.000	
1061	  f3	3.148	-0.168	2.856	O.3	20	HIS20	0.000	
1062	  f4	3.148	-0.168	3.856	O.3	20	HIS20	0.000	
1063	  f5	3.148	-0.168	4.856	O.3	20	HIS20	0.000	
1064	  f9	3.148	0.832	-0.144	O.3	20	HIS20	0.000	
1065	  fu	3.148	-1.168	2.856	O.3	20	HIS20	0.000	
1066	  fv	3.148	-1.168	3.856	O.3	20	HIS20	0.000	
1067	  fw	3.148	-1.168	4.856	O.3	20	HIS20	0.000	
1068	  g+	3.148	7.832	-0.144	O.3	20	HIS20	0.000	
1069	  g0	3.148	6.832	-1.144	O.3	20	HIS20	0.000	
1070	  g1	3.148	6.832	-0.144	O.3	20	HIS20	0.000	
1071	  g2	3.148	6.832	0.856	O.3	20	HIS20	0.000	
1072	  g3	3.148	6.832	1.856	O.3	20	HIS20	0.000	
1073	  g4	3.148	6.832	2.856	O.3	20	HIS20	0.000	
1074	  g5	3.148	6.832	3.856	O.3	20	HIS20	0.000	
1075	  g6	3.148	6.832	4.856	O.3	20	HIS20	0.000	
1076	  g9	3.148	7.832	-1.144	O.3	20	HIS20	0.000	
1077	  ga	3.148	3.832	-0.144	O.3	20	HIS20	0.000	
1078	  gB	3.148	0.832	1.856	O.3	20	HIS20	0.000	
1079	  gb	3.148	3.832	0.856	O.3	20	HIS20	0.000	
1080	  gC	3.148	0.832	2.856	O.3	20	HIS20	0.000	
1081	  gc	3.148	3.832	1.856	O.3	20	HIS20	0.000	
1082	  gD	3.148	0.832	3.856	O.3	20	HIS20	0.000	
1083	  gd	3.148	3.832	2.856	O.3	20	HIS20	0.000	
1084	  gE	3.148	0.832	4.856	O.3	20	HIS20	0.000	
1085	  ge	3.148	3.832	3.856	O.3	20	HIS20	0.000	
1086	  gF	3.148	1.832	-3.144	O.3	20	HIS20	0.000	
1087	  gf	3.148	3.832	4.856	O.3	20	HIS20	0.000	
1088	  gG	3.148	1.832	-2.144	O.3	20	HIS20	0.000	
1089	  gg	3.148	4.832	-3.144	O.3	20	HIS20	0.000	
1090	  gH	3.148	1.832	-1.144	O.3	20	HIS20	0.000	
1091	  gh	3.148	4.832	-2.144	O.3	20	HIS20	0.000	
1092	  gI	3.148	1.832	-0.144	O.3	20	HIS20	0.000	
1093	  gi	3.148	4.832	-1.144	O.3	20	HIS20	0.000	
1094	  gJ	3.148	1.832	0.856	O.3	20	HIS20	0.000	
1095	  gj	3.148	4.832	-0.144	O.3	20	HIS20	0.000	
1096	  gK	3.148	1.832	1.856	O.3	20	HIS20	0.000	
1097	  gk	3.148	4.832	0.856	O.3	20	HIS20	0.000	
1098	  gL	3.148	1.832	2.856	O.3	20	HIS20	0.000	
1099	  gl	3.148	4.832	1.856	O.3	20	HIS20	0.000	
1100	  gM	3.148	1.832	3.856	O.3	20	HIS20	0.000	
1101	  gm	3.148	4.832	2.856	O.3	20	HIS20	0.000	
1102	  gN	3.148	1.832	4.856	O.3	20	HIS20	0.000	
1103	  gn	3.148	4.832	3.856	O.3	20	HIS20	0.000	
1104	  gO	3.148	2.832	-3.144	O.3	20	HIS20	0.000	
1105	  go	3.148	4.832	4.856	O.3	20	HIS20	0.000	
1106	  gP	3.148	2.832	-2.144	O.3	20	HIS20	0.000	
1107	  gQ	3.148	2.832	-1.144	O.3	20	HIS20	0.000	
1108	  gq	3.148	5.832	-2.144	O.3	20	HIS20	0.000	
1109	  gR	3.148	2.832	-0.144	O.3	20	HIS20	0.000	
1110	  gr	3.148	5.832	-1.144	O.3	20	HIS20	0.000	
1111	  gS	3.148	2.832	0.856	O.3	20	HIS20	0.000	
1112	  gs	3.148	5.832	-0.144	O.3	20	HIS20	0.000	
1113	  gT	3.148	2.832	1.856	O.3	20	HIS20	0.000	
1114	  gt	3.148	5.832	0.856	O.3	20	HIS20	0.000	
1115	  gU	3.148	2.832	2.856	O.3	20	HIS20	0.000	
1116	  gu	3.148	5.832	1.856	O.3	20	HIS20	0.000	
1117	  gV	3.148	2.832	3.856	O.3	20	HIS20	0.000	
1118	  gv	3.148	5.832	2.856	O.3	20	HIS20	0.000	
1119	  gW	3.148	2.832	4.856	O.3	20	HIS20	0.000	
1120	  gw	3.148	5.832	3.856	O.3	20	HIS20	0.000	
1121	  gX	3.148	3.832	-3.144	O.3	20	HIS20	0.000	
1122	  gx	3.148	5.832	4.856	O.3	20	HIS20	0.000	
1123	  gY	3.148	3.832	-2.144	O.3	20	HIS20	0.000	
1124	  gZ	3.148	3.832	-1.144	O.3	20	HIS20	0.000	
1125	  hB	3.148	7.832	0.856	O.3	20	HIS20	0.000	
1126	  hC	3.148	7.832	1.856	O.3	20	HIS20	0.000	
1127	  hD	3.148	7.832	2.856	O.3	20	HIS20	0.000	
1128	  hE	3.148	7.832	3.856	O.3	20	HIS20	0.000	
1129	  hF	3.148	7.832	4.856	O.3	20	HIS20	0.000	
1130	  hM	4.148	-8.168	2.856	O.3	20	HIS20	0.000	
1131	  hN	4.148	-8.168	3.856	O.3	20	HIS20	0.000	
1132	  hO	4.148	-8.168	4.856	O.3	20	HIS20	0.000	
1133	  hd	4.148	-6.168	1.856	O.3	21	HIS21	0.000	
1134	  he	4.148	-6.168	2.856	O.3	21	HIS21	0.000	
1135	  hf	4.148	-6.168	3.856	O.3	21	HIS21	0.000	
1136	  hg	4.148	-6.168	4.856	O.3	21	HIS21	0.000	
1137	  hj	4.148	-5.168	-1.144	O.3	21	HIS21	0.000	
1138	  hk	4.148	-5.168	-0.144	O.3	21	HIS21	0.000	
1139	  hl	4.148	-5.168	0.856	O.3	21	HIS21	0.000	
1140	  hm	4.148	-5.168	1.856	O.3	21	HIS21	0.000	
1141	  hn	4.148	-5.168	2.856	O.3	21	HIS21	0.000	
1142	  hq	4.148	-4.168	-3.144	O.3	21	HIS21	0.000	
1143	  hs	4.148	-4.168	-1.144	O.3	21	HIS21	0.000	
1144	  ht	4.148	-4.168	-0.144	O.3	21	HIS21	0.000	
1145	  hW	4.148	-7.168	3.856	O.3	21	HIS21	0.000	
1146	  hX	4.148	-7.168	4.856	O.3	21	HIS21	0.000	
1147	  i1	4.148	3.832	-2.144	O.3	21	HIS21	0.000	
1148	  i2	4.148	3.832	-1.144	O.3	21	HIS21	0.000	
1149	  ic	4.148	0.832	-0.144	O.3	21	HIS21	0.000	
1150	  id	4.148	0.832	0.856	O.3	21	HIS21	0.000	
1151	  ie	4.148	0.832	1.856	O.3	21	HIS21	0.000	
1152	  if	4.148	0.832	2.856	O.3	21	HIS21	0.000	
1153	  iG	4.148	-2.168	4.856	O.3	21	HIS21	0.000	
1154	  ig	4.148	0.832	3.856	O.3	21	HIS21	0.000	
1155	  ih	4.148	0.832	4.856	O.3	21	HIS21	0.000	
1156	  ii	4.148	1.832	-3.144	O.3	21	HIS21	0.000	
1157	  ik	4.148	1.832	-1.144	O.3	21	HIS21	0.000	
1158	  il	4.148	1.832	-0.144	O.3	21	HIS21	0.000	
1159	  im	4.148	1.832	0.856	O.3	21	HIS21	0.000	
1160	  iN	4.148	-1.168	2.856	O.3	21	HIS21	0.000	
1161	  in	4.148	1.832	1.856	O.3	21	HIS21	0.000	
1162	  iO	4.148	-1.168	3.856	O.3	21	HIS21	0.000	
1163	  io	4.148	1.832	2.856	O.3	21	HIS21	0.000	
1164	  iP	4.148	-1.168	4.856	O.3	21	HIS21	0.000	
1165	  ip	4.148	1.832	3.856	O.3	21	HIS21	0.000	
1166	  iq	4.148	1.832	4.856	O.3	21	HIS21	0.000	
1167	  ir	4.148	2.832	-3.144	O.3	21	HIS21	0.000	
1168	  is	4.148	2.832	-2.144	O.3	21	HIS21	0.000	
1169	  it	4.148	2.832	-1.144	O.3	21	HIS21	0.000	
1170	  iU	4.148	-0.168	0.856	O.3	21	HIS21	0.000	
1171	  iu	4.148	2.832	-0.144	O.3	21	HIS21	0.000	
1172	  iV	4.148	-0.168	1.856	O.3	21	HIS21	0.000	
1173	  iv	4.148	2.832	0.856	O.3	21	HIS21	0.000	
1174	  iW	4.148	-0.168	2.856	O.3	21	HIS21	0.000	
1175	  iw	4.148	2.832	1.856	O.3	21	HIS21	0.000	
1176	  iX	4.148	-0.168	3.856	O.3	21	HIS21	0.000	
1177	  ix	4.148	2.832	2.856	O.3	21	HIS21	0.000	
1178	  iY	4.148	-0.168	4.856	O.3	21	HIS21	0.000	
1179	  iy	4.148	2.832	3.856	O.3	21	HIS21	0.000	
1180	  iz	4.148	2.832	4.856	O.3	21	HIS21	0.000	
1181	  i+	4.148	4.832	-2.144	O.3	22	HIS22	0.000	
1182	  i3	4.148	3.832	-0.144	O.3	22	HIS22	0.000	
1183	  i4	4.148	3.832	0.856	O.3	22	HIS22	0.000	
1184	  i5	4.148	3.832	1.856	O.3	22	HIS22	0.000	
1185	  i6	4.148	3.832	2.856	O.3	22	HIS22	0.000	
1186	  i7	4.148	3.832	3.856	O.3	22	HIS22	0.000	
1187	  i8	4.148	3.832	4.856	O.3	22	HIS22	0.000	
1188	  i9	4.148	4.832	-3.144	O.3	22	HIS22	0.000	
1189	  j0	5.148	-7.168	4.856	O.3	22	HIS22	0.000	
1190	  j8	5.148	-6.168	3.856	O.3	22	HIS22	0.000	
1191	  jB	4.148	4.832	-1.144	O.3	22	HIS22	0.000	
1192	  jC	4.148	4.832	-0.144	O.3	22	HIS22	0.000	
1193	  jD	4.148	4.832	0.856	O.3	22	HIS22	0.000	
1194	  jd	4.148	7.832	-0.144	O.3	22	HIS22	0.000	
1195	  jE	4.148	4.832	1.856	O.3	22	HIS22	0.000	
1196	  je	4.148	7.832	0.856	O.3	22	HIS22	0.000	
1197	  jF	4.148	4.832	2.856	O.3	22	HIS22	0.000	
1198	  jf	4.148	7.832	1.856	O.3	22	HIS22	0.000	
1199	  jG	4.148	4.832	3.856	O.3	22	HIS22	0.000	
1200	  jg	4.148	7.832	2.856	O.3	22	HIS22	0.000	
1201	  jH	4.148	4.832	4.856	O.3	22	HIS22	0.000	
1202	  jh	4.148	7.832	3.856	O.3	22	HIS22	0.000	
1203	  jI	4.148	5.832	-3.144	O.3	22	HIS22	0.000	
1204	  ji	4.148	7.832	4.856	O.3	22	HIS22	0.000	
1205	  jJ	4.148	5.832	-2.144	O.3	22	HIS22	0.000	
1206	  jK	4.148	5.832	-1.144	O.3	22	HIS22	0.000	
1207	  jk	5.148	-8.168	-2.144	O.3	22	HIS22	0.000	
1208	  jL	4.148	5.832	-0.144	O.3	22	HIS22	0.000	
1209	  jM	4.148	5.832	0.856	O.3	22	HIS22	0.000	
1210	  jN	4.148	5.832	1.856	O.3	22	HIS22	0.000	
1211	  jO	4.148	5.832	2.856	O.3	22	HIS22	0.000	
1212	  jP	4.148	5.832	3.856	O.3	22	HIS22	0.000	
1213	  jQ	4.148	5.832	4.856	O.3	22	HIS22	0.000	
1214	  jq	5.148	-8.168	3.856	O.3	22	HIS22	0.000	
1215	  jR	4.148	6.832	-3.144	O.3	22	HIS22	0.000	
1216	  jr	5.148	-8.168	4.856	O.3	22	HIS22	0.000	
1217	  jT	4.148	6.832	-1.144	O.3	22	HIS22	0.000	
1218	  jU	4.148	6.832	-0.144	O.3	22	HIS22	0.000	
1219	  jV	4.148	6.832	0.856	O.3	22	HIS22	0.000	
1220	  jW	4.148	6.832	1.856	O.3	22	HIS22	0.000	
1221	  jX	4.148	6.832	2.856	O.3	22	HIS22	0.000	
1222	  jY	4.148	6.832	3.856	O.3	22	HIS22	0.000	
1223	  jZ	4.148	6.832	4.856	O.3	22	HIS22	0.000	
1224	  kE	5.148	-5.168	0.856	O.3	22	HIS22	0.000	
1225	  kG	5.148	-5.168	2.856	O.3	22	HIS22	0.000	
1226	  kJ	5.148	-4.168	-3.144	O.3	22	HIS22	0.000	
1227	  kL	5.148	-4.168	-1.144	O.3	22	HIS22	0.000	
1228	  kM	5.148	-4.168	-0.144	O.3	22	HIS22	0.000	
1229	  kS	5.148	-3.168	-3.144	O.3	22	HIS22	0.000	
1230	  kU	5.148	-3.168	-1.144	O.3	22	HIS22	0.000	
1231	  k+	5.148	0.832	4.856	O.3	23	HIS23	0.000	
1232	  k0	5.148	-0.168	3.856	O.3	23	HIS23	0.000	
1233	  k1	5.148	-0.168	4.856	O.3	23	HIS23	0.000	
1234	  k5	5.148	0.832	-0.144	O.3	23	HIS23	0.000	
1235	  k6	5.148	0.832	0.856	O.3	23	HIS23	0.000	
1236	  k7	5.148	0.832	1.856	O.3	23	HIS23	0.000	
1237	  k8	5.148	0.832	2.856	O.3	23	HIS23	0.000	
1238	  k9	5.148	0.832	3.856	O.3	23	HIS23	0.000	
1239	  ks	5.148	-1.168	4.856	O.3	23	HIS23	0.000	
1240	  kw	5.148	-0.168	-0.144	O.3	23	HIS23	0.000	
1241	  kz	5.148	-0.168	2.856	O.3	23	HIS23	0.000	
1242	  l+	5.148	7.832	3.856	O.3	23	HIS23	0.000	
1243	  l0	5.148	6.832	2.856	O.3	23	HIS23	0.000	
1244	  l1	5.148	6.832	3.856	O.3	23	HIS23	0.000	
1245	  l2	5.148	6.832	4.856	O.3	23	HIS23	0.000	
1246	  l3	5.148	7.832	-3.144	O.3	23	HIS23	0.000	
1247	  l5	5.148	7.832	-1.144	O.3	23	HIS23	0.000	
1248	  l6	5.148	7.832	-0.144	O.3	23	HIS23	0.000	
1249	  l7	5.148	7.832	0.856	O.3	23	HIS23	0.000	
1250	  l8	5.148	7.832	1.856	O.3	23	HIS23	0.000	
1251	  l9	5.148	7.832	2.856	O.3	23	HIS23	0.000	
1252	  la	5.148	3.832	3.856	O.3	23	HIS23	0.000	
1253	  lb	5.148	3.832	4.856	O.3	23	HIS23	0.000	
1254	  lC	5.148	1.832	-2.144	O.3	23	HIS23	0.000	
1255	  lc	5.148	4.832	-3.144	O.3	23	HIS23	0.000	
1256	  lD	5.148	1.832	-1.144	O.3	23	HIS23	0.000	
1257	  ld	5.148	4.832	-2.144	O.3	23	HIS23	0.000	
1258	  lE	5.148	1.832	-0.144	O.3	23	HIS23	0.000	
1259	  le	5.148	4.832	-1.144	O.3	23	HIS23	0.000	
1260	  lF	5.148	1.832	0.856	O.3	23	HIS23	0.000	
1261	  lf	5.148	4.832	-0.144	O.3	23	HIS23	0.000	
1262	  lG	5.148	1.832	1.856	O.3	23	HIS23	0.000	
1263	  lg	5.148	4.832	0.856	O.3	23	HIS23	0.000	
1264	  lH	5.148	1.832	2.856	O.3	23	HIS23	0.000	
1265	  lh	5.148	4.832	1.856	O.3	23	HIS23	0.000	
1266	  lI	5.148	1.832	3.856	O.3	23	HIS23	0.000	
1267	  li	5.148	4.832	2.856	O.3	23	HIS23	0.000	
1268	  lJ	5.148	1.832	4.856	O.3	23	HIS23	0.000	
1269	  lj	5.148	4.832	3.856	O.3	23	HIS23	0.000	
1270	  lK	5.148	2.832	-3.144	O.3	23	HIS23	0.000	
1271	  lk	5.148	4.832	4.856	O.3	23	HIS23	0.000	
1272	  lL	5.148	2.832	-2.144	O.3	23	HIS23	0.000	
1273	  ll	5.148	5.832	-3.144	O.3	23	HIS23	0.000	
1274	  lM	5.148	2.832	-1.144	O.3	23	HIS23	0.000	
1275	  lm	5.148	5.832	-2.144	O.3	23	HIS23	0.000	
1276	  lN	5.148	2.832	-0.144	O.3	23	HIS23	0.000	
1277	  ln	5.148	5.832	-1.144	O.3	23	HIS23	0.000	
1278	  lO	5.148	2.832	0.856	O.3	23	HIS23	0.000	
1279	  lo	5.148	5.832	-0.144	O.3	23	HIS23	0.000	
1280	  lP	5.148	2.832	1.856	O.3	23	HIS23	0.000	
1281	  lp	5.148	5.832	0.856	O.3	23	HIS23	0.000	
1282	  lQ	5.148	2.832	2.856	O.3	23	HIS23	0.000	
1283	  lq	5.148	5.832	1.856	O.3	23	HIS23	0.000	
1284	  lR	5.148	2.832	3.856	O.3	23	HIS23	0.000	
1285	  lr	5.148	5.832	2.856	O.3	23	HIS23	0.000	
1286	  lS	5.148	2.832	4.856	O.3	23	HIS23	0.000	
1287	  ls	5.148	5.832	3.856	O.3	23	HIS23	0.000	
1288	  lT	5.148	3.832	-3.144	O.3	23	HIS23	0.000	
1289	  lt	5.148	5.832	4.856	O.3	23	HIS23	0.000	
1290	  lU	5.148	3.832	-2.144	O.3	23	HIS23	0.000	
1291	  lu	5.148	6.832	-3.144	O.3	23	HIS23	0.000	
1292	  lV	5.148	3.832	-1.144	O.3	23	HIS23	0.000	
1293	  lv	5.148	6.832	-2.144	O.3	23	HIS23	0.000	
1294	  lW	5.148	3.832	-0.144	O.3	23	HIS23	0.000	
1295	  lw	5.148	6.832	-1.144	O.3	23	HIS23	0.000	
1296	  lX	5.148	3.832	0.856	O.3	23	HIS23	0.000	
1297	  lx	5.148	6.832	-0.144	O.3	23	HIS23	0.000	
1298	  lY	5.148	3.832	1.856	O.3	23	HIS23	0.000	
1299	  ly	5.148	6.832	0.856	O.3	23	HIS23	0.000	
1300	  lZ	5.148	3.832	2.856	O.3	23	HIS23	0.000	
1301	  lz	5.148	6.832	1.856	O.3	23	HIS23	0.000	
1302	  mB	5.148	7.832	4.856	O.3	23	HIS23	0.000	
1303	  mC	6.148	-8.168	-3.144	O.3	23	HIS23	0.000	
1304	  mD	6.148	-8.168	-2.144	O.3	23	HIS23	0.000	
1305	  m5	6.148	-2.168	-2.144	O.3	24	HIS24	0.000	
1306	  m6	6.148	-2.168	-1.144	O.3	24	HIS24	0.000	
1307	  mc	6.148	-6.168	4.856	O.3	24	HIS24	0.000	
1308	  mf	6.148	-5.168	-1.144	O.3	24	HIS24	0.000	
1309	  mg	6.148	-5.168	-0.144	O.3	24	HIS24	0.000	
1310	  mH	6.148	-8.168	1.856	O.3	24	HIS24	0.000	
1311	  mh	6.148	-5.168	0.856	O.3	24	HIS24	0.000	
1312	  mI	6.148	-8.168	2.856	O.3	24	HIS24	0.000	
1313	  mJ	6.148	-8.168	3.856	O.3	24	HIS24	0.000	
1314	  mK	6.148	-8.168	4.856	O.3	24	HIS24	0.000	
1315	  mL	6.148	-7.168	-3.144	O.3	24	HIS24	0.000	
1316	  mM	6.148	-7.168	-2.144	O.3	24	HIS24	0.000	
1317	  mo	6.148	-4.168	-1.144	O.3	24	HIS24	0.000	
1318	  mp	6.148	-4.168	-0.144	O.3	24	HIS24	0.000	
1319	  mS	6.148	-7.168	3.856	O.3	24	HIS24	0.000	
1320	  mT	6.148	-7.168	4.856	O.3	24	HIS24	0.000	
1321	  mw	6.148	-3.168	-2.144	O.3	24	HIS24	0.000	
1322	  mx	6.148	-3.168	-1.144	O.3	24	HIS24	0.000	
1323	  na	6.148	0.832	1.856	O.3	24	HIS24	0.000	
1324	  nb	6.148	0.832	2.856	O.3	24	HIS24	0.000	
1325	  nc	6.148	0.832	3.856	O.3	24	HIS24	0.000	
1326	  nd	6.148	0.832	4.856	O.3	24	HIS24	0.000	
1327	  nE	6.148	-1.168	-2.144	O.3	24	HIS24	0.000	
1328	  nh	6.148	1.832	-0.144	O.3	24	HIS24	0.000	
1329	  ni	6.148	1.832	0.856	O.3	24	HIS24	0.000	
1330	  nJ	6.148	-1.168	2.856	O.3	24	HIS24	0.000	
1331	  nj	6.148	1.832	1.856	O.3	24	HIS24	0.000	
1332	  nk	6.148	1.832	2.856	O.3	24	HIS24	0.000	
1333	  nL	6.148	-1.168	4.856	O.3	24	HIS24	0.000	
1334	  nl	6.148	1.832	3.856	O.3	24	HIS24	0.000	
1335	  nm	6.148	1.832	4.856	O.3	24	HIS24	0.000	
1336	  nn	6.148	2.832	-3.144	O.3	24	HIS24	0.000	
1337	  no	6.148	2.832	-2.144	O.3	24	HIS24	0.000	
1338	  np	6.148	2.832	-1.144	O.3	24	HIS24	0.000	
1339	  nq	6.148	2.832	-0.144	O.3	24	HIS24	0.000	
1340	  nR	6.148	-0.168	1.856	O.3	24	HIS24	0.000	
1341	  nr	6.148	2.832	0.856	O.3	24	HIS24	0.000	
1342	  nS	6.148	-0.168	2.856	O.3	24	HIS24	0.000	
1343	  ns	6.148	2.832	1.856	O.3	24	HIS24	0.000	
1344	  nT	6.148	-0.168	3.856	O.3	24	HIS24	0.000	
1345	  nU	6.148	-0.168	4.856	O.3	24	HIS24	0.000	
1346	  nY	6.148	0.832	-0.144	O.3	24	HIS24	0.000	
1347	  nZ	6.148	0.832	0.856	O.3	24	HIS24	0.000	
1348	  n+	6.148	4.832	1.856	O.3	25	HIS25	0.000	
1349	  n0	6.148	3.832	0.856	O.3	25	HIS25	0.000	
1350	  n1	6.148	3.832	1.856	O.3	25	HIS25	0.000	
1351	  n2	6.148	3.832	2.856	O.3	25	HIS25	0.000	
1352	  n3	6.148	3.832	3.856	O.3	25	HIS25	0.000	
1353	  n4	6.148	3.832	4.856	O.3	25	HIS25	0.000	
1354	  n5	6.148	4.832	-3.144	O.3	25	HIS25	0.000	
1355	  n8	6.148	4.832	-0.144	O.3	25	HIS25	0.000	
1356	  n9	6.148	4.832	0.856	O.3	25	HIS25	0.000	
1357	  nt	6.148	2.832	2.856	O.3	25	HIS25	0.000	
1358	  nu	6.148	2.832	3.856	O.3	25	HIS25	0.000	
1359	  nv	6.148	2.832	4.856	O.3	25	HIS25	0.000	
1360	  nw	6.148	3.832	-3.144	O.3	25	HIS25	0.000	
1361	  nx	6.148	3.832	-2.144	O.3	25	HIS25	0.000	
1362	  ny	6.148	3.832	-1.144	O.3	25	HIS25	0.000	
1363	  nz	6.148	3.832	-0.144	O.3	25	HIS25	0.000	
1364	  o+	7.148	-5.168	0.856	O.3	25	HIS25	0.000	
1365	  o0	7.148	-6.168	-0.144	O.3	25	HIS25	0.000	
1366	  o1	7.148	-6.168	0.856	O.3	25	HIS25	0.000	
1367	  o3	7.148	-6.168	2.856	O.3	25	HIS25	0.000	
1368	  o4	7.148	-6.168	3.856	O.3	25	HIS25	0.000	
1369	  o5	7.148	-6.168	4.856	O.3	25	HIS25	0.000	
1370	  o9	7.148	-5.168	-0.144	O.3	25	HIS25	0.000	
1371	  oa	6.148	7.832	0.856	O.3	25	HIS25	0.000	
1372	  oB	6.148	4.832	2.856	O.3	25	HIS25	0.000	
1373	  ob	6.148	7.832	1.856	O.3	25	HIS25	0.000	
1374	  oC	6.148	4.832	3.856	O.3	25	HIS25	0.000	
1375	  oc	6.148	7.832	2.856	O.3	25	HIS25	0.000	
1376	  oD	6.148	4.832	4.856	O.3	25	HIS25	0.000	
1377	  od	6.148	7.832	3.856	O.3	25	HIS25	0.000	
1378	  oE	6.148	5.832	-3.144	O.3	25	HIS25	0.000	
1379	  oF	6.148	5.832	-2.144	O.3	25	HIS25	0.000	
1380	  of	7.148	-8.168	-3.144	O.3	25	HIS25	0.000	
1381	  oG	6.148	5.832	-1.144	O.3	25	HIS25	0.000	
1382	  og	7.148	-8.168	-2.144	O.3	25	HIS25	0.000	
1383	  oH	6.148	5.832	-0.144	O.3	25	HIS25	0.000	
1384	  oh	7.148	-8.168	-1.144	O.3	25	HIS25	0.000	
1385	  oI	6.148	5.832	0.856	O.3	25	HIS25	0.000	
1386	  oi	7.148	-8.168	-0.144	O.3	25	HIS25	0.000	
1387	  oJ	6.148	5.832	1.856	O.3	25	HIS25	0.000	
1388	  oj	7.148	-8.168	0.856	O.3	25	HIS25	0.000	
1389	  oK	6.148	5.832	2.856	O.3	25	HIS25	0.000	
1390	  ok	7.148	-8.168	1.856	O.3	25	HIS25	0.000	
1391	  oL	6.148	5.832	3.856	O.3	25	HIS25	0.000	
1392	  ol	7.148	-8.168	2.856	O.3	25	HIS25	0.000	
1393	  oM	6.148	5.832	4.856	O.3	25	HIS25	0.000	
1394	  om	7.148	-8.168	3.856	O.3	25	HIS25	0.000	
1395	  oN	6.148	6.832	-3.144	O.3	25	HIS25	0.000	
1396	  on	7.148	-8.168	4.856	O.3	25	HIS25	0.000	
1397	  oO	6.148	6.832	-2.144	O.3	25	HIS25	0.000	
1398	  oP	6.148	6.832	-1.144	O.3	25	HIS25	0.000	
1399	  op	7.148	-7.168	-2.144	O.3	25	HIS25	0.000	
1400	  oQ	6.148	6.832	-0.144	O.3	25	HIS25	0.000	
1401	  oq	7.148	-7.168	-1.144	O.3	25	HIS25	0.000	
1402	  oR	6.148	6.832	0.856	O.3	25	HIS25	0.000	
1403	  oS	6.148	6.832	1.856	O.3	25	HIS25	0.000	
1404	  os	7.148	-7.168	0.856	O.3	25	HIS25	0.000	
1405	  oT	6.148	6.832	2.856	O.3	25	HIS25	0.000	
1406	  ot	7.148	-7.168	1.856	O.3	25	HIS25	0.000	
1407	  oU	6.148	6.832	3.856	O.3	25	HIS25	0.000	
1408	  ou	7.148	-7.168	2.856	O.3	25	HIS25	0.000	
1409	  ov	7.148	-7.168	3.856	O.3	25	HIS25	0.000	
1410	  oW	6.148	7.832	-3.144	O.3	25	HIS25	0.000	
1411	  ow	7.148	-7.168	4.856	O.3	25	HIS25	0.000	
1412	  oX	6.148	7.832	-2.144	O.3	25	HIS25	0.000	
1413	  oY	6.148	7.832	-1.144	O.3	25	HIS25	0.000	
1414	  oZ	6.148	7.832	-0.144	O.3	25	HIS25	0.000	
1415	  oz	7.148	-6.168	-1.144	O.3	25	HIS25	0.000	
1416	  pB	7.148	-5.168	1.856	O.3	25	HIS25	0.000	
1417	  pC	7.148	-5.168	2.856	O.3	25	HIS25	0.000	
1418	  pE	7.148	-5.168	4.856	O.3	25	HIS25	0.000	
1419	  pH	7.148	-4.168	-1.144	O.3	25	HIS25	0.000	
1420	  pI	7.148	-4.168	-0.144	O.3	25	HIS25	0.000	
1421	  pJ	7.148	-4.168	0.856	O.3	25	HIS25	0.000	
1422	  pQ	7.148	-3.168	-1.144	O.3	25	HIS25	0.000	
1423	  pR	7.148	-3.168	-0.144	O.3	25	HIS25	0.000	
1424	  p+	7.148	1.832	-0.144	O.3	26	HIS26	0.000	
1425	  p3	7.148	0.832	1.856	O.3	26	HIS26	0.000	
1426	  p4	7.148	0.832	2.856	O.3	26	HIS26	0.000	
1427	  p5	7.148	0.832	3.856	O.3	26	HIS26	0.000	
1428	  p6	7.148	0.832	4.856	O.3	26	HIS26	0.000	
1429	  pi	7.148	-1.168	-1.144	O.3	26	HIS26	0.000	
1430	  pj	7.148	-1.168	-0.144	O.3	26	HIS26	0.000	
1431	  pl	7.148	-1.168	1.856	O.3	26	HIS26	0.000	
1432	  pm	7.148	-1.168	2.856	O.3	26	HIS26	0.000	
1433	  pn	7.148	-1.168	3.856	O.3	26	HIS26	0.000	
1434	  po	7.148	-1.168	4.856	O.3	26	HIS26	0.000	
1435	  pv	7.148	-0.168	2.856	O.3	26	HIS26	0.000	
1436	  pw	7.148	-0.168	3.856	O.3	26	HIS26	0.000	
1437	  px	7.148	-0.168	4.856	O.3	26	HIS26	0.000	
1438	  pZ	7.148	-2.168	-1.144	O.3	26	HIS26	0.000	
1439	  q2	7.148	7.832	-0.144	O.3	26	HIS26	0.000	
1440	  q3	7.148	7.832	0.856	O.3	26	HIS26	0.000	
1441	  q4	7.148	7.832	1.856	O.3	26	HIS26	0.000	
1442	  q5	7.148	7.832	2.856	O.3	26	HIS26	0.000	
1443	  qC	7.148	1.832	1.856	O.3	26	HIS26	0.000	
1444	  qc	7.148	4.832	0.856	O.3	26	HIS26	0.000	
1445	  qD	7.148	1.832	2.856	O.3	26	HIS26	0.000	
1446	  qd	7.148	4.832	1.856	O.3	26	HIS26	0.000	
1447	  qE	7.148	1.832	3.856	O.3	26	HIS26	0.000	
1448	  qe	7.148	4.832	2.856	O.3	26	HIS26	0.000	
1449	  qF	7.148	1.832	4.856	O.3	26	HIS26	0.000	
1450	  qf	7.148	4.832	3.856	O.3	26	HIS26	0.000	
1451	  qG	7.148	2.832	-3.144	O.3	26	HIS26	0.000	
1452	  qg	7.148	4.832	4.856	O.3	26	HIS26	0.000	
1453	  qI	7.148	2.832	-1.144	O.3	26	HIS26	0.000	
1454	  qJ	7.148	2.832	-0.144	O.3	26	HIS26	0.000	
1455	  qK	7.148	2.832	0.856	O.3	26	HIS26	0.000	
1456	  qL	7.148	2.832	1.856	O.3	26	HIS26	0.000	
1457	  ql	7.148	5.832	0.856	O.3	26	HIS26	0.000	
1458	  qM	7.148	2.832	2.856	O.3	26	HIS26	0.000	
1459	  qm	7.148	5.832	1.856	O.3	26	HIS26	0.000	
1460	  qN	7.148	2.832	3.856	O.3	26	HIS26	0.000	
1461	  qn	7.148	5.832	2.856	O.3	26	HIS26	0.000	
1462	  qO	7.148	2.832	4.856	O.3	26	HIS26	0.000	
1463	  qr	7.148	6.832	-2.144	O.3	26	HIS26	0.000	
1464	  qs	7.148	6.832	-1.144	O.3	26	HIS26	0.000	
1465	  qT	7.148	3.832	0.856	O.3	26	HIS26	0.000	
1466	  qt	7.148	6.832	-0.144	O.3	26	HIS26	0.000	
1467	  qU	7.148	3.832	1.856	O.3	26	HIS26	0.000	
1468	  qu	7.148	6.832	0.856	O.3	26	HIS26	0.000	
1469	  qV	7.148	3.832	2.856	O.3	26	HIS26	0.000	
1470	  qv	7.148	6.832	1.856	O.3	26	HIS26	0.000	
1471	  qW	7.148	3.832	3.856	O.3	26	HIS26	0.000	
1472	  qw	7.148	6.832	2.856	O.3	26	HIS26	0.000	
1473	  qX	7.148	3.832	4.856	O.3	26	HIS26	0.000	
@<TRIPOS>BOND
1 1 2 1
2 1 9 1
3 1 10 1
4 1 11 1
5 1 132 1
6 1 133 1
7 1 147 1
8 1 148 1
9 1 149 1
10 1 165 1
11 1 167 1
12 1 169 1
13 2 3 1
14 2 10 1
15 2 11 1
16 2 15 1
17 2 132 1
18 2 133 1
19 2 134 1
20 2 148 1
21 2 149 1
22 2 150 1
23 2 167 1
24 2 169 1
25 2 171 1
26 3 11 1
27 3 15 1
28 3 133 1
29 3 134 1
30 3 149 1
31 3 150 1
32 3 169 1
33 3 171 1
34 4 5 1
35 4 17 1
36 4 19 1
37 4 135 1
38 4 136 1
39 4 151 1
40 4 152 1
41 4 173 1
42 4 175 1
43 5 6 1
44 5 17 1
45 5 19 1
46 5 20 1
47 5 135 1
48 5 136 1
49 5 151 1
50 5 152 1
51 5 153 1
52 5 159 1
53 5 173 1
54 5 175 1
55 5 176 1
56 6 7 1
57 6 19 1
58 6 20 1
59 6 22 1
60 6 136 1
61 6 152 1
62 6 153 1
63 6 159 1
64 6 161 1
65 6 175 1
66 6 176 1
67 6 177 1
68 7 8 1
69 7 20 1
70 7 22 1
71 7 24 1
72 7 146 1
73 7 153 1
74 7 154 1
75 7 159 1
76 7 161 1
77 7 163 1
78 7 176 1
79 7 177 1
80 8 9 1
81 8 22 1
82 8 24 1
83 8 26 1
84 8 146 1
85 8 147 1
86 8 154 1
87 8 155 1
88 8 161 1
89 8 163 1
90 8 165 1
91 8 177 1
92 9 10 1
93 9 24 1
94 9 26 1
95 9 28 1
96 9 146 1
97 9 147 1
98 9 148 1
99 9 154 1
100 9 155 1
101 9 156 1
102 9 163 1
103 9 165 1
104 9 167 1
105 10 11 1
106 10 26 1
107 10 28 1
108 10 30 1
109 10 147 1
110 10 148 1
111 10 149 1
112 10 155 1
113 10 156 1
114 10 157 1
115 10 165 1
116 10 167 1
117 10 169 1
118 11 15 1
119 11 28 1
120 11 30 1
121 11 32 1
122 11 148 1
123 11 149 1
124 11 150 1
125 11 156 1
126 11 157 1
127 11 158 1
128 11 167 1
129 11 169 1
130 11 171 1
131 12 56 1
132 12 58 1
133 12 98 1
134 12 126 1
135 12 127 1
136 13 47 1
137 13 61 1
138 13 99 1
139 13 100 1
140 13 120 1
141 13 121 1
142 13 128 1
143 13 129 1
144 14 16 1
145 14 29 1
146 14 31 1
147 14 33 1
148 14 140 1
149 14 141 1
150 14 142 1
151 14 168 1
152 14 170 1
153 14 172 1
154 14 179 1
155 15 30 1
156 15 32 1
157 15 149 1
158 15 150 1
159 15 157 1
160 15 158 1
161 15 169 1
162 15 171 1
163 16 18 1
164 16 31 1
165 16 33 1
166 16 141 1
167 16 142 1
168 16 143 1
169 16 170 1
170 16 172 1
171 16 174 1
172 16 179 1
173 16 180 1
174 17 19 1
175 17 34 1
176 17 151 1
177 17 152 1
178 17 160 1
179 17 173 1
180 17 175 1
181 18 33 1
182 18 142 1
183 18 143 1
184 18 172 1
185 18 174 1
186 18 180 1
187 19 20 1
188 19 34 1
189 19 36 1
190 19 151 1
191 19 152 1
192 19 153 1
193 19 160 1
194 19 162 1
195 19 173 1
196 19 175 1
197 19 176 1
198 20 22 1
199 20 34 1
200 20 36 1
201 20 37 1
202 20 152 1
203 20 153 1
204 20 160 1
205 20 162 1
206 20 164 1
207 20 175 1
208 20 176 1
209 20 177 1
210 21 23 1
211 21 35 1
212 21 89 1
213 21 90 1
214 21 144 1
215 21 178 1
216 21 182 1
217 22 24 1
218 22 36 1
219 22 37 1
220 22 38 1
221 22 146 1
222 22 153 1
223 22 154 1
224 22 162 1
225 22 164 1
226 22 166 1
227 22 176 1
228 22 177 1
229 23 25 1
230 23 89 1
231 23 90 1
232 23 91 1
233 23 138 1
234 23 144 1
235 23 145 1
236 23 178 1
237 23 182 1
238 24 26 1
239 24 37 1
240 24 38 1
241 24 39 1
242 24 146 1
243 24 147 1
244 24 154 1
245 24 155 1
246 24 164 1
247 24 166 1
248 24 168 1
249 24 177 1
250 25 27 1
251 25 90 1
252 25 91 1
253 25 92 1
254 25 137 1
255 25 138 1
256 25 139 1
257 25 144 1
258 25 145 1
259 25 178 1
260 25 182 1
261 26 28 1
262 26 38 1
263 26 39 1
264 26 40 1
265 26 146 1
266 26 147 1
267 26 148 1
268 26 154 1
269 26 155 1
270 26 156 1
271 26 166 1
272 26 168 1
273 26 170 1
274 27 29 1
275 27 91 1
276 27 92 1
277 27 137 1
278 27 138 1
279 27 139 1
280 27 140 1
281 27 145 1
282 28 30 1
283 28 39 1
284 28 40 1
285 28 41 1
286 28 147 1
287 28 148 1
288 28 149 1
289 28 155 1
290 28 156 1
291 28 157 1
292 28 168 1
293 28 170 1
294 28 172 1
295 29 31 1
296 29 92 1
297 29 137 1
298 29 139 1
299 29 140 1
300 29 141 1
301 29 179 1
302 30 32 1
303 30 40 1
304 30 41 1
305 30 42 1
306 30 148 1
307 30 149 1
308 30 150 1
309 30 156 1
310 30 157 1
311 30 158 1
312 30 170 1
313 30 172 1
314 30 174 1
315 31 33 1
316 31 140 1
317 31 141 1
318 31 142 1
319 31 179 1
320 32 41 1
321 32 42 1
322 32 149 1
323 32 150 1
324 32 157 1
325 32 158 1
326 32 172 1
327 32 174 1
328 33 141 1
329 33 142 1
330 33 143 1
331 33 179 1
332 33 180 1
333 34 36 1
334 34 43 1
335 34 151 1
336 34 152 1
337 34 153 1
338 34 160 1
339 34 162 1
340 34 178 1
341 35 89 1
342 35 93 1
343 36 37 1
344 36 43 1
345 36 44 1
346 36 138 1
347 36 152 1
348 36 153 1
349 36 160 1
350 36 162 1
351 36 164 1
352 36 178 1
353 37 38 1
354 37 43 1
355 37 44 1
356 37 45 1
357 37 138 1
358 37 139 1
359 37 153 1
360 37 154 1
361 37 162 1
362 37 164 1
363 37 166 1
364 37 178 1
365 38 39 1
366 38 44 1
367 38 45 1
368 38 46 1
369 38 138 1
370 38 139 1
371 38 140 1
372 38 154 1
373 38 155 1
374 38 164 1
375 38 166 1
376 38 168 1
377 14 39 1
378 39 40 1
379 39 45 1
380 39 46 1
381 39 139 1
382 39 140 1
383 39 141 1
384 39 154 1
385 39 155 1
386 39 156 1
387 39 166 1
388 39 168 1
389 39 170 1
390 14 40 1
391 16 40 1
392 40 41 1
393 40 46 1
394 40 140 1
395 40 141 1
396 40 142 1
397 40 155 1
398 40 156 1
399 40 157 1
400 40 168 1
401 40 170 1
402 40 172 1
403 14 41 1
404 16 41 1
405 18 41 1
406 41 42 1
407 41 141 1
408 41 142 1
409 41 143 1
410 41 156 1
411 41 157 1
412 41 158 1
413 41 170 1
414 41 172 1
415 41 174 1
416 16 42 1
417 18 42 1
418 42 142 1
419 42 143 1
420 42 157 1
421 42 158 1
422 42 172 1
423 42 174 1
424 21 43 1
425 23 43 1
426 25 43 1
427 43 44 1
428 43 138 1
429 43 144 1
430 43 145 1
431 43 160 1
432 43 162 1
433 43 164 1
434 43 178 1
435 23 44 1
436 25 44 1
437 27 44 1
438 44 45 1
439 44 137 1
440 44 138 1
441 44 139 1
442 44 144 1
443 44 145 1
444 44 162 1
445 44 164 1
446 44 166 1
447 44 178 1
448 25 45 1
449 27 45 1
450 29 45 1
451 45 46 1
452 45 137 1
453 45 138 1
454 45 139 1
455 45 140 1
456 45 145 1
457 45 164 1
458 45 166 1
459 45 168 1
460 14 46 1
461 27 46 1
462 29 46 1
463 31 46 1
464 46 137 1
465 46 139 1
466 46 140 1
467 46 141 1
468 46 166 1
469 46 168 1
470 46 170 1
471 46 179 1
472 47 49 1
473 47 61 1
474 47 63 1
475 47 99 1
476 47 100 1
477 47 101 1
478 47 120 1
479 47 121 1
480 47 122 1
481 47 128 1
482 47 129 1
483 47 130 1
484 48 50 1
485 48 60 1
486 48 62 1
487 48 112 1
488 48 115 1
489 49 51 1
490 49 61 1
491 49 63 1
492 49 64 1
493 49 100 1
494 49 101 1
495 49 102 1
496 49 121 1
497 49 122 1
498 49 124 1
499 49 129 1
500 49 130 1
501 49 131 1
502 50 62 1
503 50 65 1
504 50 112 1
505 51 52 1
506 51 63 1
507 51 64 1
508 51 66 1
509 51 101 1
510 51 102 1
511 51 103 1
512 51 122 1
513 51 124 1
514 51 130 1
515 51 131 1
516 52 53 1
517 52 64 1
518 52 66 1
519 52 67 1
520 52 95 1
521 52 96 1
522 52 102 1
523 52 103 1
524 52 124 1
525 52 131 1
526 53 54 1
527 53 66 1
528 53 67 1
529 53 68 1
530 53 95 1
531 53 96 1
532 53 97 1
533 53 103 1
534 53 125 1
535 53 132 1
536 54 56 1
537 54 67 1
538 54 68 1
539 54 69 1
540 54 95 1
541 54 96 1
542 54 97 1
543 54 98 1
544 54 125 1
545 54 126 1
546 54 132 1
547 54 133 1
548 56 58 1
549 56 68 1
550 56 69 1
551 56 71 1
552 56 97 1
553 56 98 1
554 56 125 1
555 56 126 1
556 56 127 1
557 56 132 1
558 56 133 1
559 56 134 1
560 57 59 1
561 57 70 1
562 57 72 1
563 57 114 1
564 57 120 1
565 57 121 1
566 58 69 1
567 58 71 1
568 58 98 1
569 58 126 1
570 58 127 1
571 58 133 1
572 58 134 1
573 59 60 1
574 59 70 1
575 59 72 1
576 59 73 1
577 59 114 1
578 59 115 1
579 59 120 1
580 59 121 1
581 59 122 1
582 60 62 1
583 60 72 1
584 60 73 1
585 60 75 1
586 60 112 1
587 60 114 1
588 60 115 1
589 60 121 1
590 60 122 1
591 60 124 1
592 61 63 1
593 61 74 1
594 61 76 1
595 61 99 1
596 61 100 1
597 61 101 1
598 61 128 1
599 61 129 1
600 61 130 1
601 61 135 1
602 61 136 1
603 61 159 1
604 62 73 1
605 62 75 1
606 62 77 1
607 62 112 1
608 62 115 1
609 62 122 1
610 62 124 1
611 63 64 1
612 63 74 1
613 63 76 1
614 63 78 1
615 63 100 1
616 63 101 1
617 63 102 1
618 63 129 1
619 63 130 1
620 63 131 1
621 63 136 1
622 63 159 1
623 63 161 1
624 64 66 1
625 64 76 1
626 64 78 1
627 64 80 1
628 64 101 1
629 64 102 1
630 64 103 1
631 64 130 1
632 64 131 1
633 64 159 1
634 64 161 1
635 64 163 1
636 65 77 1
637 65 79 1
638 65 81 1
639 65 96 1
640 65 97 1
641 66 67 1
642 66 78 1
643 66 80 1
644 66 82 1
645 66 95 1
646 66 102 1
647 66 103 1
648 66 131 1
649 66 161 1
650 66 163 1
651 66 165 1
652 1 67 1
653 67 68 1
654 67 80 1
655 67 82 1
656 67 95 1
657 67 103 1
658 67 125 1
659 67 132 1
660 67 163 1
661 67 165 1
662 67 167 1
663 1 68 1
664 2 68 1
665 68 69 1
666 68 82 1
667 68 95 1
668 68 125 1
669 68 126 1
670 68 132 1
671 68 133 1
672 68 165 1
673 68 167 1
674 68 169 1
675 1 69 1
676 2 69 1
677 3 69 1
678 69 71 1
679 69 125 1
680 69 126 1
681 69 127 1
682 69 132 1
683 69 133 1
684 69 134 1
685 69 167 1
686 69 169 1
687 69 171 1
688 13 70 1
689 47 70 1
690 70 72 1
691 70 99 1
692 70 100 1
693 70 114 1
694 70 120 1
695 70 121 1
696 2 71 1
697 3 71 1
698 71 126 1
699 71 127 1
700 71 133 1
701 71 134 1
702 71 169 1
703 71 171 1
704 13 72 1
705 47 72 1
706 49 72 1
707 72 73 1
708 72 99 1
709 72 100 1
710 72 101 1
711 72 114 1
712 72 115 1
713 72 120 1
714 72 121 1
715 72 122 1
716 47 73 1
717 49 73 1
718 51 73 1
719 73 75 1
720 73 100 1
721 73 101 1
722 73 102 1
723 73 114 1
724 73 115 1
725 73 121 1
726 73 122 1
727 73 124 1
728 4 74 1
729 5 74 1
730 6 74 1
731 74 76 1
732 74 128 1
733 74 129 1
734 74 130 1
735 74 135 1
736 74 136 1
737 74 159 1
738 74 173 1
739 74 175 1
740 74 176 1
741 49 75 1
742 51 75 1
743 52 75 1
744 75 77 1
745 75 101 1
746 75 102 1
747 75 103 1
748 75 115 1
749 75 122 1
750 75 124 1
751 5 76 1
752 6 76 1
753 7 76 1
754 76 78 1
755 76 129 1
756 76 130 1
757 76 131 1
758 76 136 1
759 76 159 1
760 76 161 1
761 76 175 1
762 76 176 1
763 76 177 1
764 51 77 1
765 52 77 1
766 53 77 1
767 77 79 1
768 77 95 1
769 77 96 1
770 77 102 1
771 77 103 1
772 77 124 1
773 6 78 1
774 7 78 1
775 8 78 1
776 78 80 1
777 78 130 1
778 78 131 1
779 78 146 1
780 78 159 1
781 78 161 1
782 78 163 1
783 78 176 1
784 78 177 1
785 52 79 1
786 53 79 1
787 54 79 1
788 79 81 1
789 79 95 1
790 79 96 1
791 79 97 1
792 79 103 1
793 79 125 1
794 7 80 1
795 8 80 1
796 9 80 1
797 80 82 1
798 80 131 1
799 80 146 1
800 80 147 1
801 80 161 1
802 80 163 1
803 80 165 1
804 80 177 1
805 53 81 1
806 54 81 1
807 56 81 1
808 81 95 1
809 81 96 1
810 81 97 1
811 81 98 1
812 81 125 1
813 81 126 1
814 1 82 1
815 8 82 1
816 9 82 1
817 10 82 1
818 82 132 1
819 82 146 1
820 82 147 1
821 82 148 1
822 82 163 1
823 82 165 1
824 82 167 1
825 83 88 1
826 84 85 1
827 84 107 1
828 84 108 1
829 84 181 1
830 84 183 1
831 85 86 1
832 85 107 1
833 85 108 1
834 85 109 1
835 85 181 1
836 85 183 1
837 85 184 1
838 85 195 1
839 86 87 1
840 86 108 1
841 86 109 1
842 86 110 1
843 86 183 1
844 86 184 1
845 86 195 1
846 87 88 1
847 87 109 1
848 87 110 1
849 87 111 1
850 87 184 1
851 87 185 1
852 87 195 1
853 88 110 1
854 88 111 1
855 88 113 1
856 88 185 1
857 88 186 1
858 89 90 1
859 89 93 1
860 89 94 1
861 89 144 1
862 89 182 1
863 90 91 1
864 90 93 1
865 90 94 1
866 90 144 1
867 90 145 1
868 90 182 1
869 91 92 1
870 91 94 1
871 91 137 1
872 91 144 1
873 91 145 1
874 91 182 1
875 83 92 1
876 92 137 1
877 92 145 1
878 84 93 1
879 85 93 1
880 86 93 1
881 93 94 1
882 93 182 1
883 93 195 1
884 85 94 1
885 86 94 1
886 87 94 1
887 94 182 1
888 94 195 1
889 95 125 1
890 95 132 1
891 95 96 1
892 96 97 1
893 96 103 1
894 96 125 1
895 95 97 1
896 97 98 1
897 97 125 1
898 97 126 1
899 97 210 1
900 97 227 1
901 98 125 1
902 98 126 1
903 98 127 1
904 98 210 1
905 98 211 1
906 98 227 1
907 98 228 1
908 99 100 1
909 99 128 1
910 99 129 1
911 99 212 1
912 99 214 1
913 99 218 1
914 99 220 1
915 99 230 1
916 99 232 1
917 100 101 1
918 100 128 1
919 100 129 1
920 100 130 1
921 100 209 1
922 100 212 1
923 100 214 1
924 100 216 1
925 100 218 1
926 100 220 1
927 100 222 1
928 100 230 1
929 100 232 1
930 101 102 1
931 101 129 1
932 101 130 1
933 101 131 1
934 101 209 1
935 101 214 1
936 101 216 1
937 101 220 1
938 101 222 1
939 101 224 1
940 101 232 1
941 102 103 1
942 102 130 1
943 102 131 1
944 102 209 1
945 102 216 1
946 102 222 1
947 102 224 1
948 95 103 1
949 103 131 1
950 103 224 1
951 104 105 1
952 104 190 1
953 104 191 1
954 104 192 1
955 104 199 1
956 104 200 1
957 105 106 1
958 105 191 1
959 105 192 1
960 105 193 1
961 105 199 1
962 105 200 1
963 105 201 1
964 106 192 1
965 106 193 1
966 106 200 1
967 106 201 1
968 107 108 1
969 107 181 1
970 107 183 1
971 107 187 1
972 108 109 1
973 108 181 1
974 108 183 1
975 108 184 1
976 108 187 1
977 108 188 1
978 108 195 1
979 109 110 1
980 109 183 1
981 109 184 1
982 109 187 1
983 109 188 1
984 109 189 1
985 109 195 1
986 110 111 1
987 110 116 1
988 110 184 1
989 110 185 1
990 110 188 1
991 110 189 1
992 110 190 1
993 110 195 1
994 111 113 1
995 111 116 1
996 111 117 1
997 111 185 1
998 111 186 1
999 111 189 1
1000 111 190 1
1001 111 191 1
1002 112 115 1
1003 112 197 1
1004 112 213 1
1005 112 215 1
1006 113 116 1
1007 113 117 1
1008 113 118 1
1009 113 185 1
1010 113 186 1
1011 113 190 1
1012 113 191 1
1013 113 192 1
1014 114 115 1
1015 114 120 1
1016 114 121 1
1017 114 122 1
1018 114 213 1
1019 114 218 1
1020 114 220 1
1021 114 222 1
1022 115 121 1
1023 115 122 1
1024 115 124 1
1025 115 197 1
1026 115 213 1
1027 115 215 1
1028 115 220 1
1029 115 222 1
1030 115 224 1
1031 104 116 1
1032 116 117 1
1033 116 123 1
1034 116 185 1
1035 116 186 1
1036 116 189 1
1037 116 190 1
1038 116 191 1
1039 116 198 1
1040 116 199 1
1041 104 117 1
1042 105 117 1
1043 117 118 1
1044 117 123 1
1045 117 185 1
1046 117 186 1
1047 117 190 1
1048 117 191 1
1049 117 192 1
1050 117 199 1
1051 117 200 1
1052 104 118 1
1053 105 118 1
1054 106 118 1
1055 118 186 1
1056 118 191 1
1057 118 192 1
1058 118 193 1
1059 118 199 1
1060 118 200 1
1061 118 201 1
1062 119 187 1
1063 119 194 1
1064 119 196 1
1065 99 120 1
1066 100 120 1
1067 120 121 1
1068 120 218 1
1069 120 220 1
1070 120 230 1
1071 120 232 1
1072 99 121 1
1073 100 121 1
1074 101 121 1
1075 121 122 1
1076 121 209 1
1077 121 213 1
1078 121 218 1
1079 121 220 1
1080 121 222 1
1081 121 230 1
1082 121 232 1
1083 100 122 1
1084 101 122 1
1085 102 122 1
1086 122 124 1
1087 122 209 1
1088 122 213 1
1089 122 215 1
1090 122 220 1
1091 122 222 1
1092 122 224 1
1093 122 232 1
1094 104 123 1
1095 123 189 1
1096 123 190 1
1097 123 191 1
1098 123 198 1
1099 123 199 1
1100 101 124 1
1101 102 124 1
1102 103 124 1
1103 124 209 1
1104 124 213 1
1105 124 215 1
1106 124 222 1
1107 124 224 1
1108 125 126 1
1109 125 132 1
1110 125 133 1
1111 125 210 1
1112 125 217 1
1113 125 227 1
1114 126 127 1
1115 126 132 1
1116 126 133 1
1117 126 134 1
1118 126 210 1
1119 126 211 1
1120 126 217 1
1121 126 219 1
1122 126 227 1
1123 126 228 1
1124 127 133 1
1125 127 134 1
1126 127 210 1
1127 127 211 1
1128 127 217 1
1129 127 219 1
1130 127 227 1
1131 127 228 1
1132 128 129 1
1133 128 135 1
1134 128 136 1
1135 128 212 1
1136 128 214 1
1137 128 221 1
1138 128 223 1
1139 128 230 1
1140 128 232 1
1141 129 130 1
1142 129 135 1
1143 129 136 1
1144 129 159 1
1145 129 209 1
1146 129 212 1
1147 129 214 1
1148 129 216 1
1149 129 221 1
1150 129 223 1
1151 129 225 1
1152 129 230 1
1153 129 232 1
1154 130 131 1
1155 130 136 1
1156 130 159 1
1157 130 161 1
1158 130 209 1
1159 130 214 1
1160 130 216 1
1161 130 223 1
1162 130 225 1
1163 130 226 1
1164 130 232 1
1165 131 159 1
1166 131 161 1
1167 131 163 1
1168 131 209 1
1169 131 216 1
1170 131 225 1
1171 131 226 1
1172 132 133 1
1173 132 165 1
1174 132 167 1
1175 132 169 1
1176 132 210 1
1177 132 217 1
1178 132 229 1
1179 133 134 1
1180 133 167 1
1181 133 169 1
1182 133 171 1
1183 133 210 1
1184 133 211 1
1185 133 217 1
1186 133 219 1
1187 133 229 1
1188 133 231 1
1189 134 169 1
1190 134 171 1
1191 134 210 1
1192 134 211 1
1193 134 217 1
1194 134 219 1
1195 134 229 1
1196 134 231 1
1197 135 136 1
1198 135 173 1
1199 135 175 1
1200 135 212 1
1201 135 214 1
1202 135 221 1
1203 135 223 1
1204 136 159 1
1205 136 173 1
1206 136 175 1
1207 136 176 1
1208 136 212 1
1209 136 214 1
1210 136 216 1
1211 136 221 1
1212 136 223 1
1213 136 225 1
1214 137 233 1
1215 137 246 1
1216 137 251 1
1217 137 138 1
1218 138 139 1
1219 138 144 1
1220 138 145 1
1221 138 233 1
1222 138 239 1
1223 138 240 1
1224 138 245 1
1225 138 246 1
1226 137 139 1
1227 139 140 1
1228 139 145 1
1229 139 233 1
1230 139 240 1
1231 139 241 1
1232 139 246 1
1233 139 251 1
1234 137 140 1
1235 140 141 1
1236 140 179 1
1237 140 240 1
1238 140 241 1
1239 140 242 1
1240 140 247 1
1241 140 251 1
1242 140 252 1
1243 141 142 1
1244 141 179 1
1245 141 241 1
1246 141 242 1
1247 141 243 1
1248 141 247 1
1249 141 248 1
1250 141 251 1
1251 141 252 1
1252 141 253 1
1253 142 143 1
1254 142 179 1
1255 142 180 1
1256 142 242 1
1257 142 243 1
1258 142 244 1
1259 142 247 1
1260 142 248 1
1261 142 249 1
1262 142 252 1
1263 142 253 1
1264 143 180 1
1265 143 243 1
1266 143 244 1
1267 143 248 1
1268 143 249 1
1269 143 253 1
1270 144 145 1
1271 144 182 1
1272 144 233 1
1273 144 245 1
1274 144 246 1
1275 144 254 1
1276 137 145 1
1277 145 182 1
1278 145 233 1
1279 145 245 1
1280 145 246 1
1281 145 254 1
1282 146 147 1
1283 146 154 1
1284 146 155 1
1285 146 202 1
1286 146 203 1
1287 146 226 1
1288 146 234 1
1289 147 148 1
1290 147 154 1
1291 147 155 1
1292 147 156 1
1293 147 202 1
1294 147 203 1
1295 147 204 1
1296 147 234 1
1297 147 235 1
1298 148 149 1
1299 148 155 1
1300 148 156 1
1301 148 157 1
1302 148 203 1
1303 148 204 1
1304 148 205 1
1305 148 229 1
1306 148 234 1
1307 148 235 1
1308 148 236 1
1309 149 150 1
1310 149 156 1
1311 149 157 1
1312 149 158 1
1313 149 204 1
1314 149 205 1
1315 149 206 1
1316 149 229 1
1317 149 231 1
1318 149 235 1
1319 149 236 1
1320 149 237 1
1321 150 157 1
1322 150 158 1
1323 150 205 1
1324 150 206 1
1325 150 229 1
1326 150 231 1
1327 150 236 1
1328 150 237 1
1329 151 152 1
1330 151 160 1
1331 151 207 1
1332 151 208 1
1333 151 238 1
1334 152 153 1
1335 152 160 1
1336 152 162 1
1337 152 207 1
1338 152 208 1
1339 152 238 1
1340 152 239 1
1341 153 160 1
1342 153 162 1
1343 153 164 1
1344 153 208 1
1345 153 238 1
1346 153 239 1
1347 154 155 1
1348 154 164 1
1349 154 166 1
1350 154 168 1
1351 154 202 1
1352 154 203 1
1353 154 234 1
1354 154 240 1
1355 154 241 1
1356 155 156 1
1357 155 166 1
1358 155 168 1
1359 155 170 1
1360 155 202 1
1361 155 203 1
1362 155 204 1
1363 155 234 1
1364 155 235 1
1365 155 240 1
1366 155 241 1
1367 155 242 1
1368 156 157 1
1369 156 168 1
1370 156 170 1
1371 156 172 1
1372 156 203 1
1373 156 204 1
1374 156 205 1
1375 156 234 1
1376 156 235 1
1377 156 236 1
1378 156 241 1
1379 156 242 1
1380 156 243 1
1381 157 158 1
1382 157 170 1
1383 157 172 1
1384 157 174 1
1385 157 204 1
1386 157 205 1
1387 157 206 1
1388 157 235 1
1389 157 236 1
1390 157 237 1
1391 157 242 1
1392 157 243 1
1393 157 244 1
1394 158 172 1
1395 158 174 1
1396 158 205 1
1397 158 206 1
1398 158 236 1
1399 158 237 1
1400 158 243 1
1401 158 244 1
1402 159 161 1
1403 159 175 1
1404 159 176 1
1405 159 177 1
1406 159 214 1
1407 159 216 1
1408 159 223 1
1409 159 225 1
1410 159 226 1
1411 160 162 1
1412 160 178 1
1413 160 207 1
1414 160 208 1
1415 160 238 1
1416 160 239 1
1417 160 245 1
1418 146 161 1
1419 161 163 1
1420 161 176 1
1421 161 177 1
1422 161 202 1
1423 161 216 1
1424 161 225 1
1425 161 226 1
1426 138 162 1
1427 162 164 1
1428 162 178 1
1429 162 208 1
1430 162 238 1
1431 162 239 1
1432 162 245 1
1433 162 246 1
1434 146 163 1
1435 147 163 1
1436 163 165 1
1437 163 177 1
1438 163 202 1
1439 163 203 1
1440 163 226 1
1441 138 164 1
1442 139 164 1
1443 164 166 1
1444 164 178 1
1445 164 239 1
1446 164 240 1
1447 164 245 1
1448 164 246 1
1449 146 165 1
1450 147 165 1
1451 148 165 1
1452 165 167 1
1453 165 202 1
1454 165 203 1
1455 165 204 1
1456 138 166 1
1457 139 166 1
1458 140 166 1
1459 166 168 1
1460 166 234 1
1461 166 240 1
1462 166 241 1
1463 166 246 1
1464 147 167 1
1465 148 167 1
1466 149 167 1
1467 167 169 1
1468 167 203 1
1469 167 204 1
1470 167 205 1
1471 167 217 1
1472 167 229 1
1473 139 168 1
1474 140 168 1
1475 141 168 1
1476 168 170 1
1477 168 234 1
1478 168 235 1
1479 168 240 1
1480 168 241 1
1481 168 242 1
1482 168 247 1
1483 148 169 1
1484 149 169 1
1485 150 169 1
1486 169 171 1
1487 169 204 1
1488 169 205 1
1489 169 206 1
1490 169 217 1
1491 169 219 1
1492 169 229 1
1493 169 231 1
1494 140 170 1
1495 141 170 1
1496 142 170 1
1497 170 172 1
1498 170 234 1
1499 170 235 1
1500 170 236 1
1501 170 241 1
1502 170 242 1
1503 170 243 1
1504 170 247 1
1505 170 248 1
1506 149 171 1
1507 150 171 1
1508 171 205 1
1509 171 206 1
1510 171 217 1
1511 171 219 1
1512 171 229 1
1513 171 231 1
1514 141 172 1
1515 142 172 1
1516 143 172 1
1517 172 174 1
1518 172 235 1
1519 172 236 1
1520 172 237 1
1521 172 242 1
1522 172 243 1
1523 172 244 1
1524 172 247 1
1525 172 248 1
1526 172 249 1
1527 151 173 1
1528 152 173 1
1529 173 175 1
1530 173 207 1
1531 173 208 1
1532 173 221 1
1533 173 223 1
1534 142 174 1
1535 143 174 1
1536 174 236 1
1537 174 237 1
1538 174 243 1
1539 174 244 1
1540 174 248 1
1541 174 249 1
1542 151 175 1
1543 152 175 1
1544 153 175 1
1545 175 176 1
1546 175 207 1
1547 175 208 1
1548 175 221 1
1549 175 223 1
1550 175 225 1
1551 152 176 1
1552 153 176 1
1553 176 177 1
1554 176 208 1
1555 176 223 1
1556 176 225 1
1557 176 226 1
1558 146 177 1
1559 153 177 1
1560 154 177 1
1561 177 202 1
1562 177 225 1
1563 177 226 1
1564 138 178 1
1565 144 178 1
1566 145 178 1
1567 178 233 1
1568 178 238 1
1569 178 239 1
1570 178 245 1
1571 178 246 1
1572 179 247 1
1573 179 248 1
1574 179 251 1
1575 179 252 1
1576 179 253 1
1577 180 248 1
1578 180 249 1
1579 180 253 1
1580 181 183 1
1581 181 187 1
1582 181 250 1
1583 181 266 1
1584 182 233 1
1585 182 254 1
1586 183 184 1
1587 183 187 1
1588 183 188 1
1589 183 250 1
1590 183 266 1
1591 184 187 1
1592 184 188 1
1593 184 189 1
1594 184 250 1
1595 184 266 1
1596 185 186 1
1597 185 189 1
1598 185 190 1
1599 185 191 1
1600 185 269 1
1601 186 190 1
1602 186 191 1
1603 186 192 1
1604 186 263 1
1605 186 269 1
1606 186 270 1
1607 187 188 1
1608 187 194 1
1609 187 196 1
1610 187 250 1
1611 187 266 1
1612 187 274 1
1613 187 276 1
1614 188 189 1
1615 188 196 1
1616 188 198 1
1617 188 250 1
1618 188 266 1
1619 188 274 1
1620 188 276 1
1621 189 190 1
1622 189 198 1
1623 189 276 1
1624 190 191 1
1625 190 198 1
1626 190 199 1
1627 190 269 1
1628 191 192 1
1629 191 199 1
1630 191 200 1
1631 191 263 1
1632 191 269 1
1633 191 270 1
1634 192 193 1
1635 192 199 1
1636 192 200 1
1637 192 201 1
1638 192 263 1
1639 192 264 1
1640 192 269 1
1641 192 270 1
1642 192 271 1
1643 192 279 1
1644 193 200 1
1645 193 201 1
1646 193 263 1
1647 193 264 1
1648 193 265 1
1649 193 270 1
1650 193 271 1
1651 193 272 1
1652 193 279 1
1653 193 281 1
1654 194 196 1
1655 194 266 1
1656 194 274 1
1657 183 195 1
1658 184 195 1
1659 195 250 1
1660 196 266 1
1661 196 274 1
1662 196 276 1
1663 197 213 1
1664 197 215 1
1665 197 261 1
1666 197 262 1
1667 197 268 1
1668 198 276 1
1669 199 200 1
1670 199 269 1
1671 199 270 1
1672 200 201 1
1673 200 269 1
1674 200 270 1
1675 200 271 1
1676 200 279 1
1677 201 270 1
1678 201 271 1
1679 201 272 1
1680 201 279 1
1681 201 281 1
1682 202 203 1
1683 202 234 1
1684 202 288 1
1685 202 289 1
1686 202 299 1
1687 203 204 1
1688 203 234 1
1689 203 235 1
1690 203 288 1
1691 203 289 1
1692 203 290 1
1693 203 299 1
1694 203 300 1
1695 204 205 1
1696 204 234 1
1697 204 235 1
1698 204 236 1
1699 204 289 1
1700 204 290 1
1701 204 292 1
1702 204 294 1
1703 204 300 1
1704 204 301 1
1705 205 206 1
1706 205 235 1
1707 205 236 1
1708 205 237 1
1709 205 287 1
1710 205 290 1
1711 205 292 1
1712 205 293 1
1713 205 294 1
1714 205 295 1
1715 205 300 1
1716 205 301 1
1717 206 236 1
1718 206 237 1
1719 206 287 1
1720 206 292 1
1721 206 293 1
1722 206 294 1
1723 206 295 1
1724 206 301 1
1725 207 208 1
1726 207 238 1
1727 208 238 1
1728 208 239 1
1729 209 214 1
1730 209 216 1
1731 209 258 1
1732 209 277 1
1733 209 278 1
1734 209 283 1
1735 209 284 1
1736 210 211 1
1737 210 217 1
1738 210 219 1
1739 210 256 1
1740 210 259 1
1741 210 260 1
1742 210 280 1
1743 210 282 1
1744 210 291 1
1745 211 217 1
1746 211 219 1
1747 211 256 1
1748 211 259 1
1749 211 260 1
1750 211 282 1
1751 211 291 1
1752 212 214 1
1753 212 221 1
1754 212 223 1
1755 212 255 1
1756 212 257 1
1757 212 258 1
1758 212 283 1
1759 213 215 1
1760 213 220 1
1761 213 222 1
1762 213 224 1
1763 213 261 1
1764 213 267 1
1765 213 268 1
1766 213 277 1
1767 213 278 1
1768 214 216 1
1769 214 221 1
1770 214 223 1
1771 214 225 1
1772 214 255 1
1773 214 257 1
1774 214 258 1
1775 214 283 1
1776 214 284 1
1777 215 222 1
1778 215 224 1
1779 215 261 1
1780 215 262 1
1781 215 268 1
1782 215 278 1
1783 216 223 1
1784 216 225 1
1785 216 226 1
1786 216 258 1
1787 216 283 1
1788 216 284 1
1789 217 219 1
1790 217 229 1
1791 217 231 1
1792 217 259 1
1793 217 260 1
1794 217 291 1
1795 217 294 1
1796 217 295 1
1797 218 220 1
1798 218 230 1
1799 218 232 1
1800 218 257 1
1801 218 258 1
1802 218 267 1
1803 218 275 1
1804 218 277 1
1805 219 229 1
1806 219 231 1
1807 219 259 1
1808 219 260 1
1809 219 291 1
1810 219 294 1
1811 219 295 1
1812 209 220 1
1813 220 222 1
1814 220 230 1
1815 220 232 1
1816 220 257 1
1817 220 258 1
1818 220 267 1
1819 220 268 1
1820 220 275 1
1821 220 277 1
1822 220 278 1
1823 221 223 1
1824 221 255 1
1825 221 283 1
1826 209 222 1
1827 222 224 1
1828 222 232 1
1829 222 258 1
1830 222 267 1
1831 222 268 1
1832 222 277 1
1833 222 278 1
1834 223 225 1
1835 223 255 1
1836 223 283 1
1837 223 284 1
1838 209 224 1
1839 224 268 1
1840 224 278 1
1841 225 226 1
1842 225 283 1
1843 225 284 1
1844 202 226 1
1845 226 284 1
1846 226 299 1
1847 210 227 1
1848 211 227 1
1849 227 228 1
1850 227 256 1
1851 227 259 1
1852 227 260 1
1853 227 273 1
1854 227 280 1
1855 227 282 1
1856 210 228 1
1857 211 228 1
1858 228 256 1
1859 228 259 1
1860 228 260 1
1861 228 273 1
1862 228 282 1
1863 204 229 1
1864 205 229 1
1865 206 229 1
1866 229 231 1
1867 229 287 1
1868 229 291 1
1869 229 294 1
1870 229 295 1
1871 229 300 1
1872 229 301 1
1873 212 230 1
1874 214 230 1
1875 230 232 1
1876 230 255 1
1877 230 257 1
1878 230 258 1
1879 230 275 1
1880 230 277 1
1881 230 283 1
1882 205 231 1
1883 206 231 1
1884 231 287 1
1885 231 291 1
1886 231 294 1
1887 231 295 1
1888 231 301 1
1889 209 232 1
1890 212 232 1
1891 214 232 1
1892 216 232 1
1893 232 255 1
1894 232 257 1
1895 232 258 1
1896 232 275 1
1897 232 277 1
1898 232 278 1
1899 232 283 1
1900 232 284 1
1901 233 254 1
1902 233 286 1
1903 233 298 1
1904 234 235 1
1905 234 240 1
1906 234 241 1
1907 234 242 1
1908 234 288 1
1909 234 289 1
1910 234 290 1
1911 234 299 1
1912 234 300 1
1913 235 236 1
1914 235 241 1
1915 235 242 1
1916 235 243 1
1917 235 289 1
1918 235 290 1
1919 235 292 1
1920 235 296 1
1921 235 300 1
1922 235 301 1
1923 236 237 1
1924 236 242 1
1925 236 243 1
1926 236 244 1
1927 236 287 1
1928 236 290 1
1929 236 292 1
1930 236 293 1
1931 236 296 1
1932 236 297 1
1933 236 300 1
1934 236 301 1
1935 237 243 1
1936 237 244 1
1937 237 287 1
1938 237 292 1
1939 237 293 1
1940 237 296 1
1941 237 297 1
1942 237 301 1
1943 238 239 1
1944 238 245 1
1945 238 298 1
1946 239 245 1
1947 239 246 1
1948 239 298 1
1949 240 241 1
1950 240 246 1
1951 240 288 1
1952 240 289 1
1953 241 242 1
1954 241 247 1
1955 241 288 1
1956 241 289 1
1957 241 290 1
1958 242 243 1
1959 242 247 1
1960 242 248 1
1961 242 285 1
1962 242 289 1
1963 242 290 1
1964 242 292 1
1965 242 296 1
1966 243 244 1
1967 243 247 1
1968 243 248 1
1969 243 249 1
1970 243 285 1
1971 243 290 1
1972 243 292 1
1973 243 293 1
1974 243 296 1
1975 243 297 1
1976 244 248 1
1977 244 249 1
1978 244 285 1
1979 244 292 1
1980 244 293 1
1981 244 296 1
1982 244 297 1
1983 233 245 1
1984 245 246 1
1985 245 286 1
1986 245 298 1
1987 233 246 1
1988 246 286 1
1989 246 298 1
1990 247 248 1
1991 247 251 1
1992 247 252 1
1993 247 253 1
1994 247 285 1
1995 247 296 1
1996 248 249 1
1997 248 252 1
1998 248 253 1
1999 248 285 1
2000 248 296 1
2001 248 297 1
2002 249 253 1
2003 249 285 1
2004 249 296 1
2005 249 297 1
2006 250 266 1
2007 250 303 1
2008 250 309 1
2009 251 252 1
2010 251 304 1
2011 252 253 1
2012 252 285 1
2013 252 304 1
2014 252 305 1
2015 253 285 1
2016 253 304 1
2017 253 305 1
2018 254 286 1
2019 255 283 1
2020 255 328 1
2021 255 337 1
2022 256 259 1
2023 256 260 1
2024 256 324 1
2025 256 326 1
2026 256 334 1
2027 256 335 1
2028 255 257 1
2029 257 258 1
2030 257 283 1
2031 257 328 1
2032 257 332 1
2033 257 337 1
2034 255 258 1
2035 258 283 1
2036 258 284 1
2037 258 328 1
2038 258 332 1
2039 258 337 1
2040 258 339 1
2041 259 260 1
2042 259 291 1
2043 259 324 1
2044 259 326 1
2045 259 331 1
2046 259 333 1
2047 259 334 1
2048 259 335 1
2049 260 291 1
2050 260 324 1
2051 260 326 1
2052 260 331 1
2053 260 333 1
2054 260 334 1
2055 260 335 1
2056 261 262 1
2057 261 268 1
2058 261 314 1
2059 261 315 1
2060 261 329 1
2061 262 315 1
2062 263 264 1
2063 263 269 1
2064 263 270 1
2065 263 271 1
2066 263 302 1
2067 263 306 1
2068 263 307 1
2069 263 311 1
2070 263 312 1
2071 263 316 1
2072 264 265 1
2073 264 270 1
2074 264 271 1
2075 264 272 1
2076 264 302 1
2077 264 306 1
2078 264 307 1
2079 264 308 1
2080 264 312 1
2081 264 316 1
2082 264 317 1
2083 265 271 1
2084 265 272 1
2085 265 302 1
2086 265 307 1
2087 265 308 1
2088 265 316 1
2089 265 317 1
2090 266 274 1
2091 266 276 1
2092 266 303 1
2093 266 309 1
2094 266 318 1
2095 266 319 1
2096 267 268 1
2097 267 275 1
2098 267 277 1
2099 267 278 1
2100 267 314 1
2101 267 325 1
2102 267 327 1
2103 267 329 1
2104 267 332 1
2105 268 277 1
2106 268 278 1
2107 268 314 1
2108 268 315 1
2109 268 327 1
2110 268 329 1
2111 269 270 1
2112 269 306 1
2113 269 311 1
2114 270 271 1
2115 270 279 1
2116 270 306 1
2117 270 307 1
2118 270 311 1
2119 270 316 1
2120 271 272 1
2121 271 279 1
2122 271 281 1
2123 271 306 1
2124 271 307 1
2125 271 308 1
2126 271 313 1
2127 271 316 1
2128 271 317 1
2129 272 279 1
2130 272 281 1
2131 272 307 1
2132 272 308 1
2133 272 313 1
2134 272 316 1
2135 272 317 1
2136 256 273 1
2137 273 282 1
2138 273 334 1
2139 273 335 1
2140 274 276 1
2141 274 309 1
2142 274 318 1
2143 274 319 1
2144 257 275 1
2145 258 275 1
2146 275 277 1
2147 275 325 1
2148 275 327 1
2149 275 332 1
2150 275 337 1
2151 276 309 1
2152 276 319 1
2153 257 277 1
2154 258 277 1
2155 277 278 1
2156 277 325 1
2157 277 327 1
2158 277 329 1
2159 277 332 1
2160 277 337 1
2161 277 339 1
2162 258 278 1
2163 278 327 1
2164 278 329 1
2165 278 339 1
2166 279 281 1
2167 279 313 1
2168 279 316 1
2169 279 317 1
2170 259 280 1
2171 280 282 1
2172 280 324 1
2173 280 330 1
2174 280 334 1
2175 281 313 1
2176 281 316 1
2177 281 317 1
2178 256 282 1
2179 259 282 1
2180 260 282 1
2181 282 324 1
2182 282 326 1
2183 282 330 1
2184 282 334 1
2185 282 335 1
2186 283 284 1
2187 283 328 1
2188 283 337 1
2189 283 339 1
2190 284 339 1
2191 285 342 1
2192 285 350 1
2193 285 359 1
2194 286 344 1
2195 286 352 1
2196 286 353 1
2197 286 360 1
2198 286 361 1
2199 287 292 1
2200 287 293 1
2201 287 322 1
2202 287 323 1
2203 287 336 1
2204 287 338 1
2205 287 340 1
2206 287 341 1
2207 288 289 1
2208 288 320 1
2209 289 290 1
2210 289 320 1
2211 289 321 1
2212 290 292 1
2213 290 296 1
2214 290 320 1
2215 290 321 1
2216 290 322 1
2217 290 340 1
2218 291 294 1
2219 291 295 1
2220 291 324 1
2221 291 326 1
2222 291 331 1
2223 291 333 1
2224 291 336 1
2225 291 338 1
2226 292 293 1
2227 292 296 1
2228 292 297 1
2229 292 321 1
2230 292 322 1
2231 292 323 1
2232 292 340 1
2233 292 341 1
2234 292 342 1
2235 293 296 1
2236 293 297 1
2237 293 322 1
2238 293 323 1
2239 293 340 1
2240 293 341 1
2241 293 342 1
2242 287 294 1
2243 294 295 1
2244 294 300 1
2245 294 301 1
2246 294 321 1
2247 294 322 1
2248 294 323 1
2249 294 331 1
2250 294 333 1
2251 294 336 1
2252 294 338 1
2253 287 295 1
2254 295 301 1
2255 295 322 1
2256 295 323 1
2257 295 331 1
2258 295 333 1
2259 295 336 1
2260 295 338 1
2261 285 296 1
2262 296 297 1
2263 296 340 1
2264 296 341 1
2265 296 342 1
2266 296 359 1
2267 285 297 1
2268 297 340 1
2269 297 341 1
2270 297 342 1
2271 297 359 1
2272 286 298 1
2273 298 344 1
2274 298 360 1
2275 298 361 1
2276 288 299 1
2277 289 299 1
2278 299 320 1
2279 289 300 1
2280 290 300 1
2281 292 300 1
2282 300 301 1
2283 300 320 1
2284 300 321 1
2285 300 322 1
2286 300 336 1
2287 300 340 1
2288 287 301 1
2289 290 301 1
2290 292 301 1
2291 293 301 1
2292 301 321 1
2293 301 322 1
2294 301 323 1
2295 301 336 1
2296 301 338 1
2297 301 340 1
2298 301 341 1
2299 302 306 1
2300 302 307 1
2301 302 308 1
2302 302 347 1
2303 302 348 1
2304 302 358 1
2305 302 364 1
2306 302 367 1
2307 303 309 1
2308 303 349 1
2309 303 362 1
2310 303 368 1
2311 303 369 1
2312 304 305 1
2313 304 310 1
2314 304 350 1
2315 304 354 1
2316 304 355 1
2317 304 357 1
2318 304 358 1
2319 305 310 1
2320 305 350 1
2321 305 354 1
2322 305 355 1
2323 305 358 1
2324 306 307 1
2325 306 311 1
2326 306 316 1
2327 306 345 1
2328 306 346 1
2329 306 347 1
2330 306 348 1
2331 306 364 1
2332 306 370 1
2333 306 371 1
2334 306 372 1
2335 307 308 1
2336 307 316 1
2337 307 317 1
2338 307 347 1
2339 307 348 1
2340 307 364 1
2341 307 367 1
2342 307 371 1
2343 307 372 1
2344 307 373 1
2345 308 316 1
2346 308 317 1
2347 308 348 1
2348 308 367 1
2349 308 372 1
2350 308 373 1
2351 309 318 1
2352 309 319 1
2353 309 349 1
2354 309 368 1
2355 309 369 1
2356 309 374 1
2357 309 375 1
2358 302 310 1
2359 310 312 1
2360 310 346 1
2361 310 347 1
2362 310 348 1
2363 310 354 1
2364 310 355 1
2365 310 357 1
2366 310 358 1
2367 311 345 1
2368 311 364 1
2369 311 370 1
2370 311 371 1
2371 302 312 1
2372 306 312 1
2373 307 312 1
2374 312 345 1
2375 312 346 1
2376 312 347 1
2377 312 348 1
2378 312 357 1
2379 312 358 1
2380 312 364 1
2381 313 372 1
2382 313 373 1
2383 314 315 1
2384 314 327 1
2385 314 329 1
2386 314 377 1
2387 314 378 1
2388 315 329 1
2389 315 363 1
2390 315 377 1
2391 315 378 1
2392 313 316 1
2393 316 317 1
2394 316 364 1
2395 316 367 1
2396 316 371 1
2397 316 372 1
2398 316 373 1
2399 313 317 1
2400 317 367 1
2401 317 372 1
2402 317 373 1
2403 318 368 1
2404 318 369 1
2405 318 374 1
2406 319 369 1
2407 319 375 1
2408 320 321 1
2409 320 389 1
2410 320 390 1
2411 320 400 1
2412 320 401 1
2413 321 322 1
2414 321 340 1
2415 321 380 1
2416 321 390 1
2417 321 391 1
2418 321 401 1
2419 321 402 1
2420 322 323 1
2421 322 340 1
2422 322 341 1
2423 322 380 1
2424 322 381 1
2425 322 390 1
2426 322 391 1
2427 322 392 1
2428 322 401 1
2429 322 402 1
2430 322 403 1
2431 323 340 1
2432 323 341 1
2433 323 380 1
2434 323 381 1
2435 323 391 1
2436 323 392 1
2437 323 402 1
2438 323 403 1
2439 324 326 1
2440 324 331 1
2441 324 333 1
2442 324 376 1
2443 324 379 1
2444 324 407 1
2445 325 327 1
2446 325 332 1
2447 326 331 1
2448 326 333 1
2449 326 376 1
2450 326 379 1
2451 326 407 1
2452 327 329 1
2453 327 332 1
2454 327 377 1
2455 328 408 1
2456 329 377 1
2457 329 378 1
2458 330 334 1
2459 330 365 1
2460 330 366 1
2461 331 333 1
2462 331 336 1
2463 331 338 1
2464 331 379 1
2465 331 380 1
2466 331 381 1
2467 331 407 1
2468 332 337 1
2469 333 336 1
2470 333 338 1
2471 333 379 1
2472 333 380 1
2473 333 381 1
2474 333 407 1
2475 324 334 1
2476 326 334 1
2477 334 335 1
2478 334 376 1
2479 334 407 1
2480 324 335 1
2481 326 335 1
2482 335 376 1
2483 335 407 1
2484 321 336 1
2485 322 336 1
2486 323 336 1
2487 336 338 1
2488 336 379 1
2489 336 380 1
2490 336 381 1
2491 336 401 1
2492 336 402 1
2493 336 403 1
2494 328 337 1
2495 337 408 1
2496 322 338 1
2497 323 338 1
2498 338 379 1
2499 338 380 1
2500 338 381 1
2501 338 402 1
2502 338 403 1
2503 339 409 1
2504 340 341 1
2505 340 342 1
2506 340 390 1
2507 340 391 1
2508 340 392 1
2509 340 395 1
2510 340 396 1
2511 340 401 1
2512 340 402 1
2513 340 403 1
2514 341 342 1
2515 341 391 1
2516 341 392 1
2517 341 395 1
2518 341 396 1
2519 341 402 1
2520 341 403 1
2521 342 359 1
2522 342 391 1
2523 342 392 1
2524 342 395 1
2525 342 396 1
2526 342 404 1
2527 343 344 1
2528 343 360 1
2529 343 393 1
2530 343 394 1
2531 343 397 1
2532 343 398 1
2533 343 405 1
2534 343 406 1
2535 344 360 1
2536 344 361 1
2537 344 382 1
2538 344 393 1
2539 344 394 1
2540 344 397 1
2541 344 398 1
2542 344 405 1
2543 344 406 1
2544 345 364 1
2545 345 370 1
2546 345 371 1
2547 345 413 1
2548 345 415 1
2549 345 421 1
2550 345 422 1
2551 345 423 1
2552 345 428 1
2553 345 429 1
2554 345 430 1
2555 345 346 1
2556 346 347 1
2557 346 364 1
2558 346 413 1
2559 346 415 1
2560 346 417 1
2561 346 418 1
2562 346 421 1
2563 346 422 1
2564 346 423 1
2565 345 347 1
2566 347 348 1
2567 347 364 1
2568 347 415 1
2569 347 418 1
2570 347 422 1
2571 347 423 1
2572 348 364 1
2573 348 367 1
2574 348 423 1
2575 349 368 1
2576 349 369 1
2577 349 410 1
2578 349 419 1
2579 350 354 1
2580 350 355 1
2581 350 383 1
2582 350 384 1
2583 350 404 1
2584 350 414 1
2585 351 352 1
2586 351 356 1
2587 351 385 1
2588 351 405 1
2589 351 406 1
2590 352 353 1
2591 352 356 1
2592 352 382 1
2593 352 385 1
2594 352 386 1
2595 352 405 1
2596 352 406 1
2597 352 416 1
2598 353 356 1
2599 353 382 1
2600 353 385 1
2601 353 386 1
2602 353 387 1
2603 353 406 1
2604 353 416 1
2605 354 355 1
2606 354 357 1
2607 354 358 1
2608 354 383 1
2609 354 412 1
2610 354 414 1
2611 354 418 1
2612 355 358 1
2613 355 383 1
2614 355 384 1
2615 355 414 1
2616 356 362 1
2617 356 385 1
2618 356 386 1
2619 356 416 1
2620 356 419 1
2621 346 357 1
2622 347 357 1
2623 357 358 1
2624 357 411 1
2625 357 412 1
2626 357 414 1
2627 357 417 1
2628 357 418 1
2629 357 421 1
2630 357 422 1
2631 357 423 1
2632 346 358 1
2633 347 358 1
2634 348 358 1
2635 358 412 1
2636 358 414 1
2637 358 418 1
2638 358 422 1
2639 358 423 1
2640 350 359 1
2641 359 383 1
2642 359 384 1
2643 359 395 1
2644 359 396 1
2645 359 404 1
2646 351 360 1
2647 352 360 1
2648 353 360 1
2649 360 361 1
2650 360 382 1
2651 360 385 1
2652 360 386 1
2653 360 397 1
2654 360 398 1
2655 360 405 1
2656 360 406 1
2657 352 361 1
2658 353 361 1
2659 361 382 1
2660 361 385 1
2661 361 386 1
2662 361 387 1
2663 361 398 1
2664 361 406 1
2665 349 362 1
2666 362 410 1
2667 362 416 1
2668 362 419 1
2669 363 365 1
2670 363 425 1
2671 363 426 1
2672 363 449 1
2673 364 370 1
2674 364 371 1
2675 364 372 1
2676 364 415 1
2677 364 422 1
2678 364 423 1
2679 364 429 1
2680 364 430 1
2681 365 366 1
2682 365 425 1
2683 365 426 1
2684 365 449 1
2685 365 450 1
2686 366 426 1
2687 366 449 1
2688 366 450 1
2689 367 372 1
2690 367 373 1
2691 368 369 1
2692 368 374 1
2693 369 374 1
2694 369 375 1
2695 369 410 1
2696 369 431 1
2697 370 371 1
2698 370 413 1
2699 370 415 1
2700 370 428 1
2701 370 429 1
2702 370 430 1
2703 370 433 1
2704 370 434 1
2705 370 435 1
2706 371 372 1
2707 371 415 1
2708 371 429 1
2709 371 430 1
2710 371 434 1
2711 371 435 1
2712 372 373 1
2713 372 430 1
2714 372 435 1
2715 375 427 1
2716 375 431 1
2717 375 432 1
2718 376 407 1
2719 376 451 1
2720 376 458 1
2721 376 459 1
2722 376 465 1
2723 376 467 1
2724 377 378 1
2725 377 424 1
2726 363 378 1
2727 378 424 1
2728 378 425 1
2729 379 380 1
2730 379 381 1
2731 379 452 1
2732 379 453 1
2733 379 460 1
2734 379 461 1
2735 379 465 1
2736 379 467 1
2737 380 381 1
2738 380 401 1
2739 380 402 1
2740 380 403 1
2741 380 452 1
2742 380 453 1
2743 380 460 1
2744 380 461 1
2745 380 466 1
2746 380 468 1
2747 380 469 1
2748 381 402 1
2749 381 403 1
2750 381 452 1
2751 381 453 1
2752 381 460 1
2753 381 461 1
2754 381 468 1
2755 381 469 1
2756 382 385 1
2757 382 386 1
2758 382 387 1
2759 382 480 1
2760 382 481 1
2761 382 482 1
2762 382 485 1
2763 382 486 1
2764 382 493 1
2765 382 494 1
2766 382 495 1
2767 383 384 1
2768 383 414 1
2769 383 490 1
2770 383 491 1
2771 383 500 1
2772 383 502 1
2773 384 490 1
2774 384 491 1
2775 384 502 1
2776 385 386 1
2777 385 416 1
2778 385 480 1
2779 385 481 1
2780 385 487 1
2781 385 492 1
2782 385 493 1
2783 385 494 1
2784 386 387 1
2785 386 416 1
2786 386 480 1
2787 386 481 1
2788 386 482 1
2789 386 487 1
2790 386 488 1
2791 386 493 1
2792 386 494 1
2793 386 495 1
2794 387 411 1
2795 387 416 1
2796 387 417 1
2797 387 481 1
2798 387 482 1
2799 387 483 1
2800 387 487 1
2801 387 488 1
2802 387 489 1
2803 387 494 1
2804 387 495 1
2805 387 496 1
2806 388 389 1
2807 388 439 1
2808 388 440 1
2809 388 441 1
2810 388 463 1
2811 388 464 1
2812 388 470 1
2813 388 471 1
2814 389 440 1
2815 389 441 1
2816 389 442 1
2817 389 463 1
2818 389 464 1
2819 389 470 1
2820 389 471 1
2821 390 391 1
2822 390 395 1
2823 390 442 1
2824 390 443 1
2825 390 444 1
2826 390 466 1
2827 390 468 1
2828 390 472 1
2829 390 473 1
2830 391 392 1
2831 391 395 1
2832 391 396 1
2833 391 443 1
2834 391 444 1
2835 391 445 1
2836 391 466 1
2837 391 468 1
2838 391 469 1
2839 391 472 1
2840 391 473 1
2841 391 474 1
2842 392 395 1
2843 392 396 1
2844 392 444 1
2845 392 445 1
2846 392 468 1
2847 392 469 1
2848 392 473 1
2849 392 474 1
2850 393 394 1
2851 393 397 1
2852 393 398 1
2853 393 436 1
2854 393 437 1
2855 393 438 1
2856 393 446 1
2857 393 475 1
2858 393 485 1
2859 394 397 1
2860 394 398 1
2861 394 436 1
2862 394 437 1
2863 394 438 1
2864 394 439 1
2865 394 446 1
2866 394 475 1
2867 394 485 1
2868 394 486 1
2869 395 396 1
2870 395 404 1
2871 395 443 1
2872 395 444 1
2873 395 445 1
2874 395 472 1
2875 395 473 1
2876 395 474 1
2877 395 490 1
2878 395 491 1
2879 396 404 1
2880 396 444 1
2881 396 445 1
2882 396 473 1
2883 396 474 1
2884 396 490 1
2885 396 491 1
2886 397 398 1
2887 397 405 1
2888 397 406 1
2889 397 436 1
2890 397 446 1
2891 397 475 1
2892 397 485 1
2893 397 492 1
2894 397 493 1
2895 382 398 1
2896 398 405 1
2897 398 406 1
2898 398 436 1
2899 398 446 1
2900 398 475 1
2901 398 485 1
2902 398 486 1
2903 398 492 1
2904 398 493 1
2905 398 494 1
2906 388 399 1
2907 389 399 1
2908 399 400 1
2909 399 439 1
2910 399 440 1
2911 399 441 1
2912 399 455 1
2913 399 463 1
2914 399 464 1
2915 388 400 1
2916 389 400 1
2917 400 440 1
2918 400 441 1
2919 400 442 1
2920 400 463 1
2921 400 464 1
2922 390 401 1
2923 391 401 1
2924 401 402 1
2925 401 442 1
2926 401 443 1
2927 401 444 1
2928 401 460 1
2929 401 466 1
2930 401 468 1
2931 390 402 1
2932 391 402 1
2933 392 402 1
2934 402 403 1
2935 402 443 1
2936 402 444 1
2937 402 445 1
2938 402 460 1
2939 402 461 1
2940 402 466 1
2941 402 468 1
2942 402 469 1
2943 391 403 1
2944 392 403 1
2945 403 444 1
2946 403 445 1
2947 403 460 1
2948 403 461 1
2949 403 468 1
2950 403 469 1
2951 383 404 1
2952 384 404 1
2953 404 473 1
2954 404 474 1
2955 404 490 1
2956 404 491 1
2957 404 502 1
2958 385 405 1
2959 405 406 1
2960 405 475 1
2961 405 480 1
2962 405 485 1
2963 405 492 1
2964 405 493 1
2965 382 406 1
2966 385 406 1
2967 386 406 1
2968 406 475 1
2969 406 480 1
2970 406 481 1
2971 406 485 1
2972 406 486 1
2973 406 492 1
2974 406 493 1
2975 406 494 1
2976 379 407 1
2977 407 452 1
2978 407 453 1
2979 407 458 1
2980 407 459 1
2981 407 465 1
2982 407 467 1
2983 408 454 1
2984 409 447 1
2985 409 448 1
2986 409 455 1
2987 410 427 1
2988 410 476 1
2989 410 497 1
2990 411 412 1
2991 411 417 1
2992 411 418 1
2993 411 482 1
2994 411 483 1
2995 411 484 1
2996 411 488 1
2997 411 489 1
2998 411 495 1
2999 411 496 1
3000 411 498 1
3001 412 414 1
3002 412 417 1
3003 412 418 1
3004 412 483 1
3005 412 484 1
3006 412 489 1
3007 412 496 1
3008 412 498 1
3009 412 500 1
3010 413 415 1
3011 413 427 1
3012 413 428 1
3013 413 429 1
3014 413 476 1
3015 413 477 1
3016 413 478 1
3017 413 497 1
3018 413 499 1
3019 413 501 1
3020 413 503 1
3021 413 504 1
3022 414 418 1
3023 414 484 1
3024 414 498 1
3025 414 500 1
3026 414 502 1
3027 415 428 1
3028 415 429 1
3029 415 430 1
3030 415 477 1
3031 415 478 1
3032 415 479 1
3033 415 499 1
3034 415 501 1
3035 415 503 1
3036 415 504 1
3037 415 506 1
3038 416 419 1
3039 416 420 1
3040 416 480 1
3041 416 481 1
3042 416 482 1
3043 416 487 1
3044 416 488 1
3045 416 497 1
3046 417 418 1
3047 417 420 1
3048 417 421 1
3049 417 422 1
3050 417 482 1
3051 417 483 1
3052 417 484 1
3053 417 488 1
3054 417 489 1
3055 417 497 1
3056 417 499 1
3057 417 501 1
3058 418 421 1
3059 418 422 1
3060 418 423 1
3061 418 483 1
3062 418 484 1
3063 418 489 1
3064 418 499 1
3065 418 501 1
3066 410 419 1
3067 419 420 1
3068 419 476 1
3069 419 487 1
3070 419 488 1
3071 419 497 1
3072 410 420 1
3073 413 420 1
3074 420 421 1
3075 420 476 1
3076 420 477 1
3077 420 487 1
3078 420 488 1
3079 420 489 1
3080 420 497 1
3081 420 499 1
3082 413 421 1
3083 415 421 1
3084 421 422 1
3085 421 476 1
3086 421 477 1
3087 421 478 1
3088 421 488 1
3089 421 489 1
3090 421 497 1
3091 421 499 1
3092 421 501 1
3093 413 422 1
3094 415 422 1
3095 422 423 1
3096 422 477 1
3097 422 478 1
3098 422 479 1
3099 422 489 1
3100 422 499 1
3101 422 501 1
3102 415 423 1
3103 423 478 1
3104 423 479 1
3105 423 501 1
3106 425 426 1
3107 425 449 1
3108 425 505 1
3109 426 449 1
3110 426 450 1
3111 426 505 1
3112 427 428 1
3113 427 431 1
3114 427 432 1
3115 427 433 1
3116 427 476 1
3117 427 477 1
3118 427 503 1
3119 427 509 1
3120 427 510 1
3121 428 429 1
3122 428 432 1
3123 428 433 1
3124 428 434 1
3125 428 476 1
3126 428 477 1
3127 428 478 1
3128 428 503 1
3129 428 504 1
3130 428 509 1
3131 428 510 1
3132 428 512 1
3133 429 430 1
3134 429 433 1
3135 429 434 1
3136 429 435 1
3137 429 477 1
3138 429 478 1
3139 429 479 1
3140 429 503 1
3141 429 504 1
3142 429 506 1
3143 429 510 1
3144 429 512 1
3145 429 514 1
3146 430 434 1
3147 430 435 1
3148 430 478 1
3149 430 479 1
3150 430 504 1
3151 430 506 1
3152 430 507 1
3153 430 512 1
3154 430 514 1
3155 431 432 1
3156 431 509 1
3157 432 433 1
3158 432 503 1
3159 432 509 1
3160 432 510 1
3161 433 434 1
3162 433 503 1
3163 433 504 1
3164 433 509 1
3165 433 510 1
3166 433 512 1
3167 434 435 1
3168 434 503 1
3169 434 504 1
3170 434 506 1
3171 434 510 1
3172 434 512 1
3173 434 514 1
3174 435 504 1
3175 435 506 1
3176 435 507 1
3177 435 512 1
3178 435 514 1
3179 436 475 1
3180 436 485 1
3181 436 486 1
3182 436 538 1
3183 436 548 1
3184 436 549 1
3185 436 560 1
3186 436 437 1
3187 437 438 1
3188 437 446 1
3189 437 538 1
3190 437 546 1
3191 437 560 1
3192 436 438 1
3193 438 439 1
3194 438 446 1
3195 438 538 1
3196 438 546 1
3197 438 560 1
3198 436 439 1
3199 439 440 1
3200 439 470 1
3201 440 441 1
3202 440 470 1
3203 440 471 1
3204 440 539 1
3205 440 550 1
3206 440 565 1
3207 441 442 1
3208 441 470 1
3209 441 471 1
3210 441 539 1
3211 441 541 1
3212 441 550 1
3213 441 552 1
3214 441 565 1
3215 441 567 1
3216 442 443 1
3217 442 471 1
3218 442 472 1
3219 442 539 1
3220 442 541 1
3221 442 543 1
3222 442 550 1
3223 442 552 1
3224 442 554 1
3225 442 565 1
3226 442 567 1
3227 442 569 1
3228 443 444 1
3229 443 472 1
3230 443 473 1
3231 443 536 1
3232 443 541 1
3233 443 543 1
3234 443 545 1
3235 443 552 1
3236 443 554 1
3237 443 556 1
3238 443 567 1
3239 443 569 1
3240 444 445 1
3241 444 472 1
3242 444 473 1
3243 444 474 1
3244 444 536 1
3245 444 537 1
3246 444 543 1
3247 444 545 1
3248 444 547 1
3249 444 554 1
3250 444 556 1
3251 444 558 1
3252 444 569 1
3253 445 473 1
3254 445 474 1
3255 445 536 1
3256 445 537 1
3257 445 545 1
3258 445 547 1
3259 445 556 1
3260 445 558 1
3261 436 446 1
3262 446 475 1
3263 446 485 1
3264 446 538 1
3265 446 548 1
3266 446 549 1
3267 446 560 1
3268 447 448 1
3269 447 455 1
3270 447 519 1
3271 447 523 1
3272 448 455 1
3273 448 519 1
3274 448 520 1
3275 448 523 1
3276 449 450 1
3277 449 456 1
3278 449 457 1
3279 449 505 1
3280 449 513 1
3281 449 515 1
3282 450 456 1
3283 450 457 1
3284 450 458 1
3285 450 515 1
3286 451 458 1
3287 451 459 1
3288 452 453 1
3289 452 460 1
3290 452 461 1
3291 452 516 1
3292 452 517 1
3293 452 518 1
3294 452 521 1
3295 452 522 1
3296 452 525 1
3297 452 540 1
3298 452 542 1
3299 452 544 1
3300 453 460 1
3301 453 461 1
3302 453 516 1
3303 453 517 1
3304 453 518 1
3305 453 522 1
3306 453 542 1
3307 453 544 1
3308 454 462 1
3309 454 546 1
3310 455 463 1
3311 455 519 1
3312 456 457 1
3313 456 505 1
3314 456 513 1
3315 456 515 1
3316 456 524 1
3317 456 525 1
3318 457 458 1
3319 457 465 1
3320 457 515 1
3321 457 517 1
3322 457 524 1
3323 457 525 1
3324 458 459 1
3325 458 465 1
3326 458 467 1
3327 458 517 1
3328 458 518 1
3329 458 525 1
3330 459 465 1
3331 459 467 1
3332 459 517 1
3333 459 518 1
3334 460 461 1
3335 460 466 1
3336 460 468 1
3337 460 469 1
3338 460 516 1
3339 460 521 1
3340 460 522 1
3341 460 540 1
3342 460 542 1
3343 460 544 1
3344 460 554 1
3345 460 556 1
3346 460 558 1
3347 461 468 1
3348 461 469 1
3349 461 516 1
3350 461 522 1
3351 461 542 1
3352 461 544 1
3353 461 556 1
3354 461 558 1
3355 437 462 1
3356 438 462 1
3357 462 546 1
3358 462 560 1
3359 439 463 1
3360 440 463 1
3361 441 463 1
3362 463 464 1
3363 463 550 1
3364 463 565 1
3365 440 464 1
3366 441 464 1
3367 442 464 1
3368 464 550 1
3369 464 552 1
3370 464 565 1
3371 464 567 1
3372 452 465 1
3373 453 465 1
3374 465 467 1
3375 465 516 1
3376 465 517 1
3377 465 518 1
3378 465 521 1
3379 465 522 1
3380 465 525 1
3381 442 466 1
3382 443 466 1
3383 444 466 1
3384 466 468 1
3385 466 536 1
3386 466 540 1
3387 466 542 1
3388 466 552 1
3389 466 554 1
3390 466 556 1
3391 466 567 1
3392 466 569 1
3393 452 467 1
3394 453 467 1
3395 467 516 1
3396 467 517 1
3397 467 518 1
3398 467 522 1
3399 443 468 1
3400 444 468 1
3401 445 468 1
3402 468 469 1
3403 468 536 1
3404 468 537 1
3405 468 540 1
3406 468 542 1
3407 468 544 1
3408 468 554 1
3409 468 556 1
3410 468 558 1
3411 468 569 1
3412 444 469 1
3413 445 469 1
3414 469 536 1
3415 469 537 1
3416 469 542 1
3417 469 544 1
3418 469 556 1
3419 469 558 1
3420 470 471 1
3421 470 486 1
3422 470 539 1
3423 470 551 1
3424 470 553 1
3425 470 565 1
3426 471 539 1
3427 471 541 1
3428 471 551 1
3429 471 553 1
3430 471 555 1
3431 471 565 1
3432 471 567 1
3433 472 473 1
3434 472 490 1
3435 472 536 1
3436 472 541 1
3437 472 543 1
3438 472 545 1
3439 472 555 1
3440 472 557 1
3441 472 559 1
3442 472 567 1
3443 472 569 1
3444 473 474 1
3445 473 490 1
3446 473 491 1
3447 473 536 1
3448 473 537 1
3449 473 543 1
3450 473 545 1
3451 473 547 1
3452 473 557 1
3453 473 559 1
3454 473 561 1
3455 473 569 1
3456 474 490 1
3457 474 491 1
3458 474 536 1
3459 474 537 1
3460 474 545 1
3461 474 547 1
3462 474 559 1
3463 474 561 1
3464 475 485 1
3465 475 492 1
3466 475 493 1
3467 475 538 1
3468 475 548 1
3469 475 549 1
3470 475 562 1
3471 475 563 1
3472 476 477 1
3473 476 503 1
3474 476 575 1
3475 476 576 1
3476 476 577 1
3477 476 585 1
3478 476 596 1
3479 476 597 1
3480 477 478 1
3481 477 503 1
3482 477 504 1
3483 477 576 1
3484 477 577 1
3485 477 578 1
3486 477 585 1
3487 477 586 1
3488 477 596 1
3489 477 597 1
3490 477 598 1
3491 478 479 1
3492 478 503 1
3493 478 504 1
3494 478 506 1
3495 478 577 1
3496 478 578 1
3497 478 579 1
3498 478 582 1
3499 478 585 1
3500 478 586 1
3501 478 587 1
3502 478 597 1
3503 478 598 1
3504 479 504 1
3505 479 506 1
3506 479 507 1
3507 479 578 1
3508 479 579 1
3509 479 582 1
3510 479 583 1
3511 479 586 1
3512 479 587 1
3513 479 588 1
3514 479 598 1
3515 480 481 1
3516 480 487 1
3517 480 529 1
3518 480 530 1
3519 480 531 1
3520 480 562 1
3521 480 563 1
3522 480 564 1
3523 480 571 1
3524 481 482 1
3525 481 487 1
3526 481 488 1
3527 481 530 1
3528 481 531 1
3529 481 532 1
3530 481 563 1
3531 481 564 1
3532 481 566 1
3533 481 571 1
3534 481 572 1
3535 482 483 1
3536 482 487 1
3537 482 488 1
3538 482 489 1
3539 482 531 1
3540 482 532 1
3541 482 533 1
3542 482 564 1
3543 482 566 1
3544 482 568 1
3545 482 571 1
3546 482 572 1
3547 482 573 1
3548 483 484 1
3549 483 488 1
3550 483 489 1
3551 483 532 1
3552 483 533 1
3553 483 534 1
3554 483 566 1
3555 483 568 1
3556 483 570 1
3557 483 572 1
3558 483 573 1
3559 483 574 1
3560 484 489 1
3561 484 526 1
3562 484 533 1
3563 484 534 1
3564 484 535 1
3565 484 568 1
3566 484 570 1
3567 484 573 1
3568 484 574 1
3569 485 486 1
3570 485 492 1
3571 485 493 1
3572 485 494 1
3573 485 538 1
3574 485 548 1
3575 485 549 1
3576 485 562 1
3577 485 563 1
3578 485 564 1
3579 486 493 1
3580 486 494 1
3581 486 495 1
3582 486 549 1
3583 486 551 1
3584 486 563 1
3585 486 564 1
3586 486 566 1
3587 487 488 1
3588 487 497 1
3589 487 530 1
3590 487 531 1
3591 487 532 1
3592 487 571 1
3593 487 572 1
3594 487 575 1
3595 487 576 1
3596 488 489 1
3597 488 497 1
3598 488 499 1
3599 488 531 1
3600 488 532 1
3601 488 533 1
3602 488 571 1
3603 488 572 1
3604 488 573 1
3605 488 575 1
3606 488 576 1
3607 488 577 1
3608 489 497 1
3609 489 499 1
3610 489 501 1
3611 489 532 1
3612 489 533 1
3613 489 534 1
3614 489 572 1
3615 489 573 1
3616 489 574 1
3617 489 576 1
3618 489 577 1
3619 489 578 1
3620 490 491 1
3621 490 500 1
3622 490 502 1
3623 490 526 1
3624 490 527 1
3625 490 528 1
3626 490 543 1
3627 490 545 1
3628 490 547 1
3629 490 557 1
3630 490 559 1
3631 490 561 1
3632 491 502 1
3633 491 527 1
3634 491 528 1
3635 491 545 1
3636 491 547 1
3637 491 559 1
3638 491 561 1
3639 480 492 1
3640 492 493 1
3641 492 529 1
3642 492 530 1
3643 492 548 1
3644 492 549 1
3645 492 562 1
3646 492 563 1
3647 480 493 1
3648 481 493 1
3649 493 494 1
3650 493 529 1
3651 493 530 1
3652 493 531 1
3653 493 548 1
3654 493 549 1
3655 493 562 1
3656 493 563 1
3657 493 564 1
3658 480 494 1
3659 481 494 1
3660 482 494 1
3661 494 495 1
3662 494 530 1
3663 494 531 1
3664 494 532 1
3665 494 549 1
3666 494 551 1
3667 494 563 1
3668 494 564 1
3669 494 566 1
3670 481 495 1
3671 482 495 1
3672 483 495 1
3673 495 496 1
3674 495 531 1
3675 495 532 1
3676 495 533 1
3677 495 551 1
3678 495 553 1
3679 495 564 1
3680 495 566 1
3681 495 568 1
3682 482 496 1
3683 483 496 1
3684 484 496 1
3685 496 498 1
3686 496 532 1
3687 496 533 1
3688 496 534 1
3689 496 551 1
3690 496 553 1
3691 496 555 1
3692 496 566 1
3693 496 568 1
3694 496 570 1
3695 476 497 1
3696 477 497 1
3697 497 499 1
3698 497 571 1
3699 497 572 1
3700 497 573 1
3701 497 575 1
3702 497 576 1
3703 497 577 1
3704 497 596 1
3705 497 597 1
3706 483 498 1
3707 484 498 1
3708 498 500 1
3709 498 526 1
3710 498 533 1
3711 498 534 1
3712 498 535 1
3713 498 553 1
3714 498 555 1
3715 498 557 1
3716 498 568 1
3717 498 570 1
3718 476 499 1
3719 477 499 1
3720 478 499 1
3721 499 501 1
3722 499 572 1
3723 499 573 1
3724 499 574 1
3725 499 576 1
3726 499 577 1
3727 499 578 1
3728 499 596 1
3729 499 597 1
3730 499 598 1
3731 484 500 1
3732 500 502 1
3733 500 526 1
3734 500 527 1
3735 500 534 1
3736 500 535 1
3737 500 555 1
3738 500 557 1
3739 500 559 1
3740 500 570 1
3741 477 501 1
3742 478 501 1
3743 479 501 1
3744 501 573 1
3745 501 574 1
3746 501 577 1
3747 501 578 1
3748 501 579 1
3749 501 582 1
3750 501 597 1
3751 501 598 1
3752 502 526 1
3753 502 527 1
3754 502 528 1
3755 502 535 1
3756 502 557 1
3757 502 559 1
3758 502 561 1
3759 503 504 1
3760 503 509 1
3761 503 510 1
3762 503 512 1
3763 503 585 1
3764 503 586 1
3765 503 590 1
3766 503 591 1
3767 503 592 1
3768 503 596 1
3769 503 597 1
3770 503 598 1
3771 504 506 1
3772 504 510 1
3773 504 512 1
3774 504 514 1
3775 504 582 1
3776 504 585 1
3777 504 586 1
3778 504 587 1
3779 504 591 1
3780 504 592 1
3781 504 593 1
3782 504 597 1
3783 504 598 1
3784 505 511 1
3785 505 513 1
3786 505 515 1
3787 505 581 1
3788 505 612 1
3789 505 613 1
3790 506 507 1
3791 506 512 1
3792 506 514 1
3793 506 582 1
3794 506 583 1
3795 506 586 1
3796 506 587 1
3797 506 588 1
3798 506 592 1
3799 506 593 1
3800 506 594 1
3801 506 598 1
3802 507 508 1
3803 507 514 1
3804 507 582 1
3805 507 583 1
3806 507 584 1
3807 507 587 1
3808 507 588 1
3809 507 589 1
3810 507 593 1
3811 507 594 1
3812 508 583 1
3813 508 584 1
3814 508 588 1
3815 508 589 1
3816 508 594 1
3817 509 510 1
3818 509 585 1
3819 509 590 1
3820 509 591 1
3821 510 512 1
3822 510 585 1
3823 510 586 1
3824 510 590 1
3825 510 591 1
3826 510 592 1
3827 511 513 1
3828 511 523 1
3829 511 581 1
3830 511 611 1
3831 511 612 1
3832 511 613 1
3833 511 619 1
3834 511 620 1
3835 512 514 1
3836 512 585 1
3837 512 586 1
3838 512 587 1
3839 512 591 1
3840 512 592 1
3841 512 593 1
3842 513 515 1
3843 513 523 1
3844 513 524 1
3845 513 581 1
3846 513 612 1
3847 513 613 1
3848 513 619 1
3849 513 620 1
3850 513 621 1
3851 514 586 1
3852 514 587 1
3853 514 588 1
3854 514 592 1
3855 514 593 1
3856 514 594 1
3857 515 524 1
3858 515 525 1
3859 515 581 1
3860 515 613 1
3861 515 620 1
3862 515 621 1
3863 516 542 1
3864 516 544 1
3865 516 608 1
3866 516 610 1
3867 516 617 1
3868 516 618 1
3869 516 517 1
3870 517 518 1
3871 517 521 1
3872 517 522 1
3873 517 607 1
3874 517 608 1
3875 517 610 1
3876 516 518 1
3877 518 522 1
3878 518 608 1
3879 518 610 1
3880 519 619 1
3881 519 627 1
3882 520 606 1
3883 520 614 1
3884 520 615 1
3885 520 619 1
3886 520 620 1
3887 520 621 1
3888 520 627 1
3889 520 628 1
3890 521 522 1
3891 521 540 1
3892 521 542 1
3893 521 606 1
3894 521 607 1
3895 521 608 1
3896 521 615 1
3897 521 616 1
3898 521 617 1
3899 521 621 1
3900 516 522 1
3901 522 540 1
3902 522 542 1
3903 522 544 1
3904 522 607 1
3905 522 608 1
3906 522 610 1
3907 522 616 1
3908 522 617 1
3909 522 618 1
3910 519 523 1
3911 520 523 1
3912 523 611 1
3913 523 612 1
3914 523 613 1
3915 523 619 1
3916 523 620 1
3917 523 627 1
3918 523 628 1
3919 520 524 1
3920 521 524 1
3921 524 525 1
3922 524 606 1
3923 524 607 1
3924 524 613 1
3925 524 620 1
3926 524 621 1
3927 524 628 1
3928 517 525 1
3929 521 525 1
3930 522 525 1
3931 525 606 1
3932 525 607 1
3933 525 608 1
3934 525 621 1
3935 526 527 1
3936 526 534 1
3937 526 535 1
3938 526 641 1
3939 526 643 1
3940 526 645 1
3941 526 655 1
3942 526 657 1
3943 526 659 1
3944 526 670 1
3945 526 672 1
3946 526 674 1
3947 527 528 1
3948 527 535 1
3949 527 643 1
3950 527 645 1
3951 527 647 1
3952 527 657 1
3953 527 659 1
3954 527 661 1
3955 527 672 1
3956 527 674 1
3957 527 676 1
3958 528 645 1
3959 528 647 1
3960 528 659 1
3961 528 661 1
3962 528 674 1
3963 528 676 1
3964 529 530 1
3965 529 650 1
3966 529 663 1
3967 529 679 1
3968 530 531 1
3969 530 571 1
3970 530 650 1
3971 530 652 1
3972 530 663 1
3973 530 664 1
3974 530 679 1
3975 530 680 1
3976 531 532 1
3977 531 571 1
3978 531 572 1
3979 531 650 1
3980 531 652 1
3981 531 654 1
3982 531 663 1
3983 531 664 1
3984 531 666 1
3985 531 679 1
3986 531 680 1
3987 531 681 1
3988 532 533 1
3989 532 571 1
3990 532 572 1
3991 532 573 1
3992 532 639 1
3993 532 652 1
3994 532 654 1
3995 532 656 1
3996 532 664 1
3997 532 666 1
3998 532 668 1
3999 532 680 1
4000 532 681 1
4001 533 534 1
4002 533 572 1
4003 533 573 1
4004 533 574 1
4005 533 639 1
4006 533 641 1
4007 533 654 1
4008 533 656 1
4009 533 658 1
4010 533 666 1
4011 533 668 1
4012 533 670 1
4013 533 681 1
4014 534 535 1
4015 534 573 1
4016 534 574 1
4017 534 639 1
4018 534 641 1
4019 534 643 1
4020 534 656 1
4021 534 658 1
4022 534 660 1
4023 534 668 1
4024 534 670 1
4025 534 672 1
4026 535 574 1
4027 535 641 1
4028 535 643 1
4029 535 645 1
4030 535 658 1
4031 535 660 1
4032 535 662 1
4033 535 670 1
4034 535 672 1
4035 535 674 1
4036 536 537 1
4037 536 543 1
4038 536 545 1
4039 536 547 1
4040 536 601 1
4041 536 602 1
4042 536 603 1
4043 536 623 1
4044 536 624 1
4045 536 625 1
4046 536 640 1
4047 536 642 1
4048 536 644 1
4049 537 545 1
4050 537 547 1
4051 537 602 1
4052 537 603 1
4053 537 624 1
4054 537 625 1
4055 537 642 1
4056 537 644 1
4057 538 548 1
4058 538 549 1
4059 538 604 1
4060 538 626 1
4061 538 646 1
4062 538 648 1
4063 539 541 1
4064 539 551 1
4065 539 553 1
4066 539 555 1
4067 539 599 1
4068 539 600 1
4069 539 605 1
4070 539 629 1
4071 539 630 1
4072 539 651 1
4073 539 653 1
4074 539 655 1
4075 540 542 1
4076 540 552 1
4077 540 554 1
4078 540 556 1
4079 540 606 1
4080 540 607 1
4081 540 608 1
4082 540 615 1
4083 540 616 1
4084 540 617 1
4085 540 622 1
4086 540 623 1
4087 540 624 1
4088 541 543 1
4089 541 553 1
4090 541 555 1
4091 541 557 1
4092 541 599 1
4093 541 600 1
4094 541 601 1
4095 541 629 1
4096 541 630 1
4097 541 640 1
4098 541 653 1
4099 541 655 1
4100 541 657 1
4101 542 544 1
4102 542 554 1
4103 542 556 1
4104 542 558 1
4105 542 607 1
4106 542 608 1
4107 542 610 1
4108 542 616 1
4109 542 617 1
4110 542 618 1
4111 542 623 1
4112 542 624 1
4113 542 625 1
4114 543 545 1
4115 543 555 1
4116 543 557 1
4117 543 559 1
4118 543 600 1
4119 543 601 1
4120 543 602 1
4121 543 629 1
4122 543 640 1
4123 543 642 1
4124 543 655 1
4125 543 657 1
4126 543 659 1
4127 544 556 1
4128 544 558 1
4129 544 608 1
4130 544 610 1
4131 544 617 1
4132 544 618 1
4133 544 624 1
4134 544 625 1
4135 545 547 1
4136 545 557 1
4137 545 559 1
4138 545 561 1
4139 545 601 1
4140 545 602 1
4141 545 603 1
4142 545 640 1
4143 545 642 1
4144 545 644 1
4145 545 657 1
4146 545 659 1
4147 545 661 1
4148 546 560 1
4149 546 626 1
4150 547 559 1
4151 547 561 1
4152 547 602 1
4153 547 603 1
4154 547 642 1
4155 547 644 1
4156 547 659 1
4157 547 661 1
4158 548 549 1
4159 548 562 1
4160 548 563 1
4161 548 604 1
4162 548 646 1
4163 548 648 1
4164 548 663 1
4165 549 562 1
4166 549 563 1
4167 549 564 1
4168 549 604 1
4169 549 646 1
4170 549 648 1
4171 549 649 1
4172 549 663 1
4173 549 664 1
4174 550 552 1
4175 550 565 1
4176 550 567 1
4177 550 599 1
4178 550 600 1
4179 550 614 1
4180 550 615 1
4181 550 622 1
4182 551 553 1
4183 551 564 1
4184 551 566 1
4185 551 568 1
4186 551 605 1
4187 551 630 1
4188 551 649 1
4189 551 651 1
4190 551 653 1
4191 551 664 1
4192 551 666 1
4193 551 668 1
4194 552 554 1
4195 552 565 1
4196 552 567 1
4197 552 569 1
4198 552 599 1
4199 552 600 1
4200 552 601 1
4201 552 614 1
4202 552 615 1
4203 552 616 1
4204 552 622 1
4205 552 623 1
4206 553 555 1
4207 553 566 1
4208 553 568 1
4209 553 570 1
4210 553 605 1
4211 553 629 1
4212 553 630 1
4213 553 651 1
4214 553 653 1
4215 553 655 1
4216 553 666 1
4217 553 668 1
4218 553 670 1
4219 536 554 1
4220 554 556 1
4221 554 567 1
4222 554 569 1
4223 554 600 1
4224 554 601 1
4225 554 602 1
4226 554 615 1
4227 554 616 1
4228 554 617 1
4229 554 622 1
4230 554 623 1
4231 554 624 1
4232 526 555 1
4233 555 557 1
4234 555 568 1
4235 555 570 1
4236 555 629 1
4237 555 630 1
4238 555 640 1
4239 555 653 1
4240 555 655 1
4241 555 657 1
4242 555 668 1
4243 555 670 1
4244 555 672 1
4245 536 556 1
4246 537 556 1
4247 556 558 1
4248 556 569 1
4249 556 601 1
4250 556 602 1
4251 556 603 1
4252 556 616 1
4253 556 617 1
4254 556 618 1
4255 556 623 1
4256 556 624 1
4257 556 625 1
4258 526 557 1
4259 527 557 1
4260 557 559 1
4261 557 570 1
4262 557 629 1
4263 557 640 1
4264 557 642 1
4265 557 655 1
4266 557 657 1
4267 557 659 1
4268 557 670 1
4269 557 672 1
4270 557 674 1
4271 536 558 1
4272 537 558 1
4273 558 602 1
4274 558 603 1
4275 558 617 1
4276 558 618 1
4277 558 624 1
4278 558 625 1
4279 526 559 1
4280 527 559 1
4281 528 559 1
4282 559 561 1
4283 559 640 1
4284 559 642 1
4285 559 644 1
4286 559 657 1
4287 559 659 1
4288 559 661 1
4289 559 672 1
4290 559 674 1
4291 559 676 1
4292 538 560 1
4293 560 604 1
4294 560 626 1
4295 527 561 1
4296 528 561 1
4297 561 642 1
4298 561 644 1
4299 561 659 1
4300 561 661 1
4301 561 674 1
4302 561 676 1
4303 529 562 1
4304 530 562 1
4305 562 563 1
4306 562 646 1
4307 562 648 1
4308 562 663 1
4309 562 679 1
4310 529 563 1
4311 530 563 1
4312 531 563 1
4313 563 564 1
4314 563 646 1
4315 563 648 1
4316 563 649 1
4317 563 663 1
4318 563 664 1
4319 563 679 1
4320 563 680 1
4321 530 564 1
4322 531 564 1
4323 532 564 1
4324 564 566 1
4325 564 648 1
4326 564 649 1
4327 564 651 1
4328 564 663 1
4329 564 664 1
4330 564 666 1
4331 564 679 1
4332 564 680 1
4333 564 681 1
4334 539 565 1
4335 541 565 1
4336 565 567 1
4337 565 599 1
4338 565 600 1
4339 565 605 1
4340 565 622 1
4341 565 629 1
4342 565 630 1
4343 531 566 1
4344 532 566 1
4345 533 566 1
4346 566 568 1
4347 566 639 1
4348 566 649 1
4349 566 651 1
4350 566 653 1
4351 566 664 1
4352 566 666 1
4353 566 668 1
4354 566 680 1
4355 566 681 1
4356 539 567 1
4357 541 567 1
4358 543 567 1
4359 567 569 1
4360 567 599 1
4361 567 600 1
4362 567 601 1
4363 567 622 1
4364 567 623 1
4365 567 629 1
4366 567 630 1
4367 567 640 1
4368 532 568 1
4369 533 568 1
4370 534 568 1
4371 568 570 1
4372 568 639 1
4373 568 641 1
4374 568 651 1
4375 568 653 1
4376 568 655 1
4377 568 666 1
4378 568 668 1
4379 568 670 1
4380 568 681 1
4381 536 569 1
4382 541 569 1
4383 543 569 1
4384 545 569 1
4385 569 600 1
4386 569 601 1
4387 569 602 1
4388 569 622 1
4389 569 623 1
4390 569 624 1
4391 569 629 1
4392 569 640 1
4393 569 642 1
4394 526 570 1
4395 533 570 1
4396 534 570 1
4397 535 570 1
4398 570 639 1
4399 570 641 1
4400 570 643 1
4401 570 653 1
4402 570 655 1
4403 570 657 1
4404 570 668 1
4405 570 670 1
4406 570 672 1
4407 571 572 1
4408 571 575 1
4409 571 576 1
4410 571 650 1
4411 571 652 1
4412 571 654 1
4413 571 665 1
4414 571 667 1
4415 571 669 1
4416 571 679 1
4417 571 680 1
4418 571 681 1
4419 572 573 1
4420 572 575 1
4421 572 576 1
4422 572 577 1
4423 572 639 1
4424 572 652 1
4425 572 654 1
4426 572 656 1
4427 572 667 1
4428 572 669 1
4429 572 671 1
4430 572 680 1
4431 572 681 1
4432 573 574 1
4433 573 576 1
4434 573 577 1
4435 573 578 1
4436 573 639 1
4437 573 641 1
4438 573 654 1
4439 573 656 1
4440 573 658 1
4441 573 669 1
4442 573 671 1
4443 573 673 1
4444 573 681 1
4445 574 577 1
4446 574 578 1
4447 574 579 1
4448 574 639 1
4449 574 641 1
4450 574 643 1
4451 574 656 1
4452 574 658 1
4453 574 660 1
4454 574 671 1
4455 574 673 1
4456 574 675 1
4457 575 576 1
4458 575 596 1
4459 575 632 1
4460 575 650 1
4461 575 652 1
4462 575 654 1
4463 575 665 1
4464 575 667 1
4465 575 669 1
4466 576 577 1
4467 576 596 1
4468 576 597 1
4469 576 632 1
4470 576 633 1
4471 576 652 1
4472 576 654 1
4473 576 656 1
4474 576 667 1
4475 576 669 1
4476 576 671 1
4477 577 578 1
4478 577 596 1
4479 577 597 1
4480 577 598 1
4481 577 632 1
4482 577 633 1
4483 577 634 1
4484 577 654 1
4485 577 656 1
4486 577 658 1
4487 577 669 1
4488 577 671 1
4489 577 673 1
4490 578 579 1
4491 578 582 1
4492 578 597 1
4493 578 598 1
4494 578 633 1
4495 578 634 1
4496 578 635 1
4497 578 656 1
4498 578 658 1
4499 578 660 1
4500 578 671 1
4501 578 673 1
4502 578 675 1
4503 579 582 1
4504 579 583 1
4505 579 598 1
4506 579 634 1
4507 579 635 1
4508 579 636 1
4509 579 658 1
4510 579 660 1
4511 579 662 1
4512 579 673 1
4513 579 675 1
4514 579 677 1
4515 580 609 1
4516 580 688 1
4517 580 689 1
4518 580 698 1
4519 580 699 1
4520 580 700 1
4521 581 612 1
4522 581 613 1
4523 581 683 1
4524 581 685 1
4525 581 692 1
4526 581 694 1
4527 581 707 1
4528 582 583 1
4529 582 586 1
4530 582 587 1
4531 582 588 1
4532 582 634 1
4533 582 635 1
4534 582 636 1
4535 582 673 1
4536 582 675 1
4537 582 677 1
4538 582 682 1
4539 582 684 1
4540 582 686 1
4541 583 584 1
4542 583 587 1
4543 583 588 1
4544 583 589 1
4545 583 635 1
4546 583 636 1
4547 583 637 1
4548 583 675 1
4549 583 677 1
4550 583 678 1
4551 583 684 1
4552 583 686 1
4553 583 687 1
4554 584 588 1
4555 584 589 1
4556 584 636 1
4557 584 637 1
4558 584 677 1
4559 584 678 1
4560 584 686 1
4561 584 687 1
4562 585 586 1
4563 585 590 1
4564 585 591 1
4565 585 592 1
4566 585 631 1
4567 585 632 1
4568 585 633 1
4569 585 634 1
4570 585 638 1
4571 585 682 1
4572 585 690 1
4573 585 691 1
4574 585 693 1
4575 586 587 1
4576 586 591 1
4577 586 592 1
4578 586 593 1
4579 586 631 1
4580 586 633 1
4581 586 634 1
4582 586 635 1
4583 586 682 1
4584 586 684 1
4585 586 691 1
4586 586 693 1
4587 586 695 1
4588 587 588 1
4589 587 592 1
4590 587 593 1
4591 587 594 1
4592 587 634 1
4593 587 635 1
4594 587 636 1
4595 587 682 1
4596 587 684 1
4597 587 686 1
4598 587 693 1
4599 587 695 1
4600 587 696 1
4601 588 589 1
4602 588 593 1
4603 588 594 1
4604 588 635 1
4605 588 636 1
4606 588 637 1
4607 588 684 1
4608 588 686 1
4609 588 687 1
4610 588 695 1
4611 588 696 1
4612 588 697 1
4613 589 594 1
4614 589 636 1
4615 589 637 1
4616 589 686 1
4617 589 687 1
4618 589 696 1
4619 589 697 1
4620 590 591 1
4621 590 631 1
4622 590 638 1
4623 590 690 1
4624 590 691 1
4625 591 592 1
4626 591 631 1
4627 591 638 1
4628 591 682 1
4629 591 690 1
4630 591 691 1
4631 591 693 1
4632 592 593 1
4633 592 631 1
4634 592 682 1
4635 592 684 1
4636 592 691 1
4637 592 693 1
4638 592 695 1
4639 593 594 1
4640 593 682 1
4641 593 684 1
4642 593 686 1
4643 593 693 1
4644 593 695 1
4645 593 696 1
4646 594 684 1
4647 594 686 1
4648 594 687 1
4649 594 695 1
4650 594 696 1
4651 594 697 1
4652 580 595 1
4653 595 698 1
4654 595 699 1
4655 595 700 1
4656 585 596 1
4657 596 597 1
4658 596 631 1
4659 596 632 1
4660 596 633 1
4661 596 638 1
4662 596 667 1
4663 596 669 1
4664 596 671 1
4665 585 597 1
4666 586 597 1
4667 597 598 1
4668 597 631 1
4669 597 632 1
4670 597 633 1
4671 597 634 1
4672 597 638 1
4673 597 669 1
4674 597 671 1
4675 597 673 1
4676 597 682 1
4677 582 598 1
4678 585 598 1
4679 586 598 1
4680 587 598 1
4681 598 631 1
4682 598 633 1
4683 598 634 1
4684 598 635 1
4685 598 671 1
4686 598 673 1
4687 598 675 1
4688 598 682 1
4689 598 684 1
4690 599 600 1
4691 599 605 1
4692 599 629 1
4693 599 630 1
4694 599 726 1
4695 599 728 1
4696 599 730 1
4697 599 739 1
4698 599 750 1
4699 599 752 1
4700 600 601 1
4701 600 629 1
4702 600 630 1
4703 600 640 1
4704 600 728 1
4705 600 730 1
4706 600 732 1
4707 600 739 1
4708 600 741 1
4709 600 750 1
4710 600 752 1
4711 600 754 1
4712 601 602 1
4713 601 629 1
4714 601 640 1
4715 601 642 1
4716 601 730 1
4717 601 732 1
4718 601 734 1
4719 601 739 1
4720 601 741 1
4721 601 743 1
4722 601 752 1
4723 601 754 1
4724 601 756 1
4725 602 603 1
4726 602 640 1
4727 602 642 1
4728 602 644 1
4729 602 732 1
4730 602 734 1
4731 602 735 1
4732 602 741 1
4733 602 743 1
4734 602 745 1
4735 602 754 1
4736 602 756 1
4737 602 758 1
4738 603 642 1
4739 603 644 1
4740 603 734 1
4741 603 735 1
4742 603 743 1
4743 603 745 1
4744 603 756 1
4745 603 758 1
4746 604 646 1
4747 604 648 1
4748 604 736 1
4749 604 747 1
4750 605 630 1
4751 605 649 1
4752 605 651 1
4753 605 653 1
4754 605 726 1
4755 605 728 1
4756 605 737 1
4757 605 738 1
4758 605 740 1
4759 605 750 1
4760 606 607 1
4761 606 614 1
4762 606 615 1
4763 606 616 1
4764 606 702 1
4765 606 703 1
4766 606 704 1
4767 606 711 1
4768 606 712 1
4769 606 713 1
4770 606 725 1
4771 606 727 1
4772 606 729 1
4773 607 608 1
4774 607 615 1
4775 607 616 1
4776 607 617 1
4777 607 703 1
4778 607 704 1
4779 607 705 1
4780 607 712 1
4781 607 713 1
4782 607 714 1
4783 607 727 1
4784 607 729 1
4785 607 731 1
4786 608 610 1
4787 608 616 1
4788 608 617 1
4789 608 618 1
4790 608 704 1
4791 608 705 1
4792 608 706 1
4793 608 713 1
4794 608 714 1
4795 608 715 1
4796 608 729 1
4797 608 731 1
4798 608 733 1
4799 609 688 1
4800 609 689 1
4801 609 700 1
4802 609 708 1
4803 610 617 1
4804 610 618 1
4805 610 705 1
4806 610 706 1
4807 610 714 1
4808 610 715 1
4809 610 731 1
4810 610 733 1
4811 611 612 1
4812 611 619 1
4813 611 689 1
4814 611 692 1
4815 611 709 1
4816 611 710 1
4817 612 613 1
4818 612 619 1
4819 612 620 1
4820 612 683 1
4821 612 692 1
4822 612 694 1
4823 612 709 1
4824 612 710 1
4825 612 711 1
4826 613 619 1
4827 613 620 1
4828 613 621 1
4829 613 683 1
4830 613 685 1
4831 613 692 1
4832 613 694 1
4833 613 707 1
4834 613 710 1
4835 613 711 1
4836 613 712 1
4837 614 615 1
4838 614 622 1
4839 614 701 1
4840 614 702 1
4841 614 703 1
4842 614 725 1
4843 614 727 1
4844 614 739 1
4845 615 616 1
4846 615 622 1
4847 615 623 1
4848 615 702 1
4849 615 703 1
4850 615 704 1
4851 615 725 1
4852 615 727 1
4853 615 729 1
4854 615 739 1
4855 615 741 1
4856 616 617 1
4857 616 622 1
4858 616 623 1
4859 616 624 1
4860 616 703 1
4861 616 704 1
4862 616 705 1
4863 616 727 1
4864 616 729 1
4865 616 731 1
4866 616 739 1
4867 616 741 1
4868 616 743 1
4869 617 618 1
4870 617 623 1
4871 617 624 1
4872 617 625 1
4873 617 704 1
4874 617 705 1
4875 617 706 1
4876 617 729 1
4877 617 731 1
4878 617 733 1
4879 617 741 1
4880 617 743 1
4881 617 745 1
4882 618 624 1
4883 618 625 1
4884 618 705 1
4885 618 706 1
4886 618 731 1
4887 618 733 1
4888 618 743 1
4889 618 745 1
4890 619 620 1
4891 619 627 1
4892 619 628 1
4893 619 692 1
4894 619 694 1
4895 619 701 1
4896 619 702 1
4897 619 709 1
4898 619 710 1
4899 619 711 1
4900 606 620 1
4901 620 621 1
4902 620 627 1
4903 620 628 1
4904 620 692 1
4905 620 694 1
4906 620 701 1
4907 620 702 1
4908 620 703 1
4909 620 707 1
4910 620 710 1
4911 620 711 1
4912 620 712 1
4913 606 621 1
4914 607 621 1
4915 621 628 1
4916 621 694 1
4917 621 702 1
4918 621 703 1
4919 621 704 1
4920 621 707 1
4921 621 711 1
4922 621 712 1
4923 621 713 1
4924 599 622 1
4925 600 622 1
4926 601 622 1
4927 622 623 1
4928 622 725 1
4929 622 727 1
4930 622 729 1
4931 622 739 1
4932 622 741 1
4933 622 750 1
4934 622 752 1
4935 622 754 1
4936 600 623 1
4937 601 623 1
4938 602 623 1
4939 623 624 1
4940 623 727 1
4941 623 729 1
4942 623 731 1
4943 623 739 1
4944 623 741 1
4945 623 743 1
4946 623 752 1
4947 623 754 1
4948 623 756 1
4949 601 624 1
4950 602 624 1
4951 603 624 1
4952 624 625 1
4953 624 729 1
4954 624 731 1
4955 624 733 1
4956 624 741 1
4957 624 743 1
4958 624 745 1
4959 624 754 1
4960 624 756 1
4961 624 758 1
4962 602 625 1
4963 603 625 1
4964 625 731 1
4965 625 733 1
4966 625 743 1
4967 625 745 1
4968 625 756 1
4969 625 758 1
4970 604 626 1
4971 626 747 1
4972 614 627 1
4973 627 628 1
4974 627 701 1
4975 627 702 1
4976 627 709 1
4977 627 710 1
4978 627 711 1
4979 627 725 1
4980 606 628 1
4981 614 628 1
4982 615 628 1
4983 628 701 1
4984 628 702 1
4985 628 703 1
4986 628 710 1
4987 628 711 1
4988 628 712 1
4989 628 725 1
4990 628 727 1
4991 629 640 1
4992 629 653 1
4993 629 655 1
4994 629 657 1
4995 629 728 1
4996 629 730 1
4997 629 732 1
4998 629 740 1
4999 629 742 1
5000 629 744 1
5001 629 750 1
5002 629 752 1
5003 629 754 1
5004 629 630 1
5005 630 651 1
5006 630 653 1
5007 630 655 1
5008 630 726 1
5009 630 728 1
5010 630 730 1
5011 630 738 1
5012 630 740 1
5013 630 742 1
5014 630 750 1
5015 630 752 1
5016 631 682 1
5017 631 690 1
5018 631 691 1
5019 631 693 1
5020 631 819 1
5021 631 820 1
5022 631 821 1
5023 631 825 1
5024 631 826 1
5025 631 828 1
5026 631 837 1
5027 631 838 1
5028 631 839 1
5029 631 632 1
5030 632 633 1
5031 632 638 1
5032 632 768 1
5033 632 769 1
5034 632 770 1
5035 632 818 1
5036 632 819 1
5037 632 820 1
5038 632 836 1
5039 632 837 1
5040 632 838 1
5041 631 633 1
5042 633 634 1
5043 633 638 1
5044 633 682 1
5045 633 769 1
5046 633 770 1
5047 633 771 1
5048 633 819 1
5049 633 820 1
5050 633 821 1
5051 633 837 1
5052 633 838 1
5053 633 839 1
5054 631 634 1
5055 634 635 1
5056 634 682 1
5057 634 684 1
5058 634 770 1
5059 634 771 1
5060 634 820 1
5061 634 821 1
5062 634 822 1
5063 634 827 1
5064 634 838 1
5065 634 839 1
5066 634 840 1
5067 635 636 1
5068 635 682 1
5069 635 684 1
5070 635 686 1
5071 635 771 1
5072 635 821 1
5073 635 822 1
5074 635 823 1
5075 635 827 1
5076 635 829 1
5077 635 839 1
5078 635 840 1
5079 635 842 1
5080 636 637 1
5081 636 684 1
5082 636 686 1
5083 636 687 1
5084 636 822 1
5085 636 823 1
5086 636 824 1
5087 636 827 1
5088 636 829 1
5089 636 831 1
5090 636 840 1
5091 636 842 1
5092 636 844 1
5093 637 686 1
5094 637 687 1
5095 637 823 1
5096 637 824 1
5097 637 829 1
5098 637 831 1
5099 637 842 1
5100 637 844 1
5101 631 638 1
5102 638 690 1
5103 638 691 1
5104 638 818 1
5105 638 819 1
5106 638 820 1
5107 638 825 1
5108 638 826 1
5109 638 836 1
5110 638 837 1
5111 638 838 1
5112 639 641 1
5113 639 654 1
5114 639 656 1
5115 639 658 1
5116 639 718 1
5117 639 719 1
5118 639 720 1
5119 639 751 1
5120 639 753 1
5121 639 755 1
5122 639 761 1
5123 639 762 1
5124 639 763 1
5125 640 642 1
5126 640 655 1
5127 640 657 1
5128 640 659 1
5129 640 730 1
5130 640 732 1
5131 640 734 1
5132 640 742 1
5133 640 744 1
5134 640 746 1
5135 640 752 1
5136 640 754 1
5137 640 756 1
5138 641 643 1
5139 641 656 1
5140 641 658 1
5141 641 660 1
5142 641 719 1
5143 641 720 1
5144 641 721 1
5145 641 753 1
5146 641 755 1
5147 641 757 1
5148 641 762 1
5149 641 763 1
5150 641 764 1
5151 642 644 1
5152 642 657 1
5153 642 659 1
5154 642 661 1
5155 642 732 1
5156 642 734 1
5157 642 735 1
5158 642 744 1
5159 642 746 1
5160 642 748 1
5161 642 754 1
5162 642 756 1
5163 642 758 1
5164 643 645 1
5165 643 658 1
5166 643 660 1
5167 643 662 1
5168 643 720 1
5169 643 721 1
5170 643 722 1
5171 643 755 1
5172 643 757 1
5173 643 759 1
5174 643 763 1
5175 643 764 1
5176 643 765 1
5177 644 659 1
5178 644 661 1
5179 644 734 1
5180 644 735 1
5181 644 746 1
5182 644 748 1
5183 644 756 1
5184 644 758 1
5185 645 647 1
5186 645 660 1
5187 645 662 1
5188 645 721 1
5189 645 722 1
5190 645 723 1
5191 645 757 1
5192 645 759 1
5193 645 760 1
5194 645 764 1
5195 645 765 1
5196 645 766 1
5197 646 648 1
5198 646 663 1
5199 646 736 1
5200 647 662 1
5201 647 722 1
5202 647 723 1
5203 647 759 1
5204 647 760 1
5205 647 765 1
5206 647 766 1
5207 648 649 1
5208 648 663 1
5209 648 664 1
5210 648 736 1
5211 648 737 1
5212 648 749 1
5213 649 651 1
5214 649 663 1
5215 649 664 1
5216 649 666 1
5217 649 726 1
5218 649 737 1
5219 649 738 1
5220 649 749 1
5221 649 751 1
5222 650 652 1
5223 650 665 1
5224 650 667 1
5225 650 716 1
5226 650 717 1
5227 650 724 1
5228 650 767 1
5229 650 768 1
5230 651 653 1
5231 651 664 1
5232 651 666 1
5233 651 668 1
5234 651 726 1
5235 651 728 1
5236 651 737 1
5237 651 738 1
5238 651 740 1
5239 651 749 1
5240 651 751 1
5241 651 753 1
5242 652 654 1
5243 652 665 1
5244 652 667 1
5245 652 669 1
5246 652 716 1
5247 652 717 1
5248 652 718 1
5249 652 724 1
5250 652 761 1
5251 652 767 1
5252 652 768 1
5253 652 769 1
5254 653 655 1
5255 653 666 1
5256 653 668 1
5257 653 670 1
5258 653 726 1
5259 653 728 1
5260 653 730 1
5261 653 738 1
5262 653 740 1
5263 653 742 1
5264 653 751 1
5265 653 753 1
5266 653 755 1
5267 654 656 1
5268 654 667 1
5269 654 669 1
5270 654 671 1
5271 654 716 1
5272 654 717 1
5273 654 718 1
5274 654 719 1
5275 654 761 1
5276 654 762 1
5277 654 768 1
5278 654 769 1
5279 654 770 1
5280 655 657 1
5281 655 668 1
5282 655 670 1
5283 655 672 1
5284 655 728 1
5285 655 730 1
5286 655 732 1
5287 655 740 1
5288 655 742 1
5289 655 744 1
5290 655 753 1
5291 655 755 1
5292 655 757 1
5293 656 658 1
5294 656 669 1
5295 656 671 1
5296 656 673 1
5297 656 718 1
5298 656 719 1
5299 656 720 1
5300 656 761 1
5301 656 762 1
5302 656 763 1
5303 656 769 1
5304 656 770 1
5305 656 771 1
5306 657 659 1
5307 657 670 1
5308 657 672 1
5309 657 674 1
5310 657 730 1
5311 657 732 1
5312 657 734 1
5313 657 742 1
5314 657 744 1
5315 657 746 1
5316 657 755 1
5317 657 757 1
5318 657 759 1
5319 658 660 1
5320 658 671 1
5321 658 673 1
5322 658 675 1
5323 658 719 1
5324 658 720 1
5325 658 721 1
5326 658 762 1
5327 658 763 1
5328 658 764 1
5329 658 770 1
5330 658 771 1
5331 658 827 1
5332 659 661 1
5333 659 672 1
5334 659 674 1
5335 659 676 1
5336 659 732 1
5337 659 734 1
5338 659 735 1
5339 659 744 1
5340 659 746 1
5341 659 748 1
5342 659 757 1
5343 659 759 1
5344 659 760 1
5345 660 662 1
5346 660 673 1
5347 660 675 1
5348 660 677 1
5349 660 720 1
5350 660 721 1
5351 660 722 1
5352 660 763 1
5353 660 764 1
5354 660 765 1
5355 660 771 1
5356 660 827 1
5357 660 829 1
5358 661 674 1
5359 661 676 1
5360 661 734 1
5361 661 735 1
5362 661 746 1
5363 661 748 1
5364 661 759 1
5365 661 760 1
5366 662 675 1
5367 662 677 1
5368 662 678 1
5369 662 721 1
5370 662 722 1
5371 662 723 1
5372 662 764 1
5373 662 765 1
5374 662 766 1
5375 662 827 1
5376 662 829 1
5377 662 831 1
5378 663 664 1
5379 663 679 1
5380 663 680 1
5381 663 717 1
5382 663 736 1
5383 663 737 1
5384 663 749 1
5385 664 666 1
5386 664 679 1
5387 664 680 1
5388 664 681 1
5389 664 717 1
5390 664 718 1
5391 664 737 1
5392 664 738 1
5393 664 749 1
5394 664 751 1
5395 665 667 1
5396 665 716 1
5397 665 724 1
5398 665 767 1
5399 665 768 1
5400 665 834 1
5401 665 836 1
5402 639 666 1
5403 666 668 1
5404 666 680 1
5405 666 681 1
5406 666 717 1
5407 666 718 1
5408 666 719 1
5409 666 737 1
5410 666 738 1
5411 666 740 1
5412 666 749 1
5413 666 751 1
5414 666 753 1
5415 632 667 1
5416 667 669 1
5417 667 716 1
5418 667 724 1
5419 667 761 1
5420 667 767 1
5421 667 768 1
5422 667 769 1
5423 667 834 1
5424 667 836 1
5425 667 837 1
5426 639 668 1
5427 641 668 1
5428 668 670 1
5429 668 681 1
5430 668 718 1
5431 668 719 1
5432 668 720 1
5433 668 738 1
5434 668 740 1
5435 668 742 1
5436 668 751 1
5437 668 753 1
5438 668 755 1
5439 632 669 1
5440 633 669 1
5441 669 671 1
5442 669 716 1
5443 669 761 1
5444 669 762 1
5445 669 768 1
5446 669 769 1
5447 669 770 1
5448 669 836 1
5449 669 837 1
5450 669 838 1
5451 639 670 1
5452 641 670 1
5453 643 670 1
5454 670 672 1
5455 670 719 1
5456 670 720 1
5457 670 721 1
5458 670 740 1
5459 670 742 1
5460 670 744 1
5461 670 753 1
5462 670 755 1
5463 670 757 1
5464 632 671 1
5465 633 671 1
5466 634 671 1
5467 671 673 1
5468 671 761 1
5469 671 762 1
5470 671 763 1
5471 671 769 1
5472 671 770 1
5473 671 771 1
5474 671 837 1
5475 671 838 1
5476 671 839 1
5477 641 672 1
5478 643 672 1
5479 645 672 1
5480 672 674 1
5481 672 720 1
5482 672 721 1
5483 672 722 1
5484 672 742 1
5485 672 744 1
5486 672 746 1
5487 672 755 1
5488 672 757 1
5489 672 759 1
5490 633 673 1
5491 634 673 1
5492 635 673 1
5493 673 675 1
5494 673 762 1
5495 673 763 1
5496 673 764 1
5497 673 770 1
5498 673 771 1
5499 673 827 1
5500 673 838 1
5501 673 839 1
5502 673 840 1
5503 643 674 1
5504 645 674 1
5505 647 674 1
5506 674 676 1
5507 674 721 1
5508 674 722 1
5509 674 723 1
5510 674 744 1
5511 674 746 1
5512 674 748 1
5513 674 757 1
5514 674 759 1
5515 674 760 1
5516 634 675 1
5517 635 675 1
5518 636 675 1
5519 675 677 1
5520 675 763 1
5521 675 764 1
5522 675 765 1
5523 675 771 1
5524 675 827 1
5525 675 829 1
5526 675 839 1
5527 675 840 1
5528 675 842 1
5529 645 676 1
5530 647 676 1
5531 676 722 1
5532 676 723 1
5533 676 746 1
5534 676 748 1
5535 676 759 1
5536 676 760 1
5537 635 677 1
5538 636 677 1
5539 637 677 1
5540 677 678 1
5541 677 764 1
5542 677 765 1
5543 677 766 1
5544 677 827 1
5545 677 829 1
5546 677 831 1
5547 677 840 1
5548 677 842 1
5549 677 844 1
5550 636 678 1
5551 637 678 1
5552 678 765 1
5553 678 766 1
5554 678 829 1
5555 678 831 1
5556 678 842 1
5557 678 844 1
5558 650 679 1
5559 652 679 1
5560 679 680 1
5561 679 716 1
5562 679 717 1
5563 679 724 1
5564 679 749 1
5565 650 680 1
5566 652 680 1
5567 654 680 1
5568 680 681 1
5569 680 716 1
5570 680 717 1
5571 680 718 1
5572 680 724 1
5573 680 749 1
5574 680 751 1
5575 680 761 1
5576 639 681 1
5577 652 681 1
5578 654 681 1
5579 656 681 1
5580 681 716 1
5581 681 717 1
5582 681 718 1
5583 681 719 1
5584 681 749 1
5585 681 751 1
5586 681 753 1
5587 681 761 1
5588 681 762 1
5589 682 684 1
5590 682 691 1
5591 682 693 1
5592 682 695 1
5593 682 820 1
5594 682 821 1
5595 682 822 1
5596 682 826 1
5597 682 828 1
5598 682 830 1
5599 682 838 1
5600 682 839 1
5601 682 840 1
5602 683 685 1
5603 683 692 1
5604 683 694 1
5605 683 707 1
5606 683 773 1
5607 683 774 1
5608 683 776 1
5609 683 813 1
5610 683 814 1
5611 683 841 1
5612 684 686 1
5613 684 693 1
5614 684 695 1
5615 684 696 1
5616 684 821 1
5617 684 822 1
5618 684 823 1
5619 684 828 1
5620 684 830 1
5621 684 832 1
5622 684 839 1
5623 684 840 1
5624 684 842 1
5625 685 694 1
5626 685 707 1
5627 685 774 1
5628 685 776 1
5629 685 778 1
5630 685 813 1
5631 685 814 1
5632 685 815 1
5633 685 841 1
5634 685 843 1
5635 686 687 1
5636 686 695 1
5637 686 696 1
5638 686 697 1
5639 686 822 1
5640 686 823 1
5641 686 824 1
5642 686 830 1
5643 686 832 1
5644 686 833 1
5645 686 840 1
5646 686 842 1
5647 686 844 1
5648 687 696 1
5649 687 697 1
5650 687 823 1
5651 687 824 1
5652 687 832 1
5653 687 833 1
5654 687 842 1
5655 687 844 1
5656 688 689 1
5657 688 708 1
5658 688 784 1
5659 688 786 1
5660 688 811 1
5661 688 812 1
5662 688 817 1
5663 689 708 1
5664 689 709 1
5665 689 772 1
5666 689 784 1
5667 689 786 1
5668 689 787 1
5669 689 811 1
5670 689 812 1
5671 689 817 1
5672 690 691 1
5673 690 818 1
5674 690 819 1
5675 690 820 1
5676 690 825 1
5677 690 826 1
5678 691 693 1
5679 691 819 1
5680 691 820 1
5681 691 821 1
5682 691 825 1
5683 691 826 1
5684 691 828 1
5685 692 694 1
5686 692 709 1
5687 692 710 1
5688 692 711 1
5689 692 772 1
5690 692 773 1
5691 692 774 1
5692 692 787 1
5693 692 788 1
5694 692 789 1
5695 692 813 1
5696 693 695 1
5697 693 820 1
5698 693 821 1
5699 693 822 1
5700 693 826 1
5701 693 828 1
5702 693 830 1
5703 694 707 1
5704 694 710 1
5705 694 711 1
5706 694 712 1
5707 694 773 1
5708 694 774 1
5709 694 776 1
5710 694 788 1
5711 694 789 1
5712 694 790 1
5713 694 813 1
5714 694 814 1
5715 695 696 1
5716 695 821 1
5717 695 822 1
5718 695 823 1
5719 695 828 1
5720 695 830 1
5721 695 832 1
5722 696 697 1
5723 696 822 1
5724 696 823 1
5725 696 824 1
5726 696 830 1
5727 696 832 1
5728 696 833 1
5729 697 823 1
5730 697 824 1
5731 697 832 1
5732 697 833 1
5733 698 699 1
5734 698 700 1
5735 698 812 1
5736 698 835 1
5737 699 700 1
5738 699 812 1
5739 699 835 1
5740 688 700 1
5741 689 700 1
5742 700 811 1
5743 700 812 1
5744 700 817 1
5745 700 835 1
5746 701 702 1
5747 701 725 1
5748 701 775 1
5749 701 777 1
5750 701 787 1
5751 701 788 1
5752 701 789 1
5753 701 800 1
5754 701 802 1
5755 702 703 1
5756 702 725 1
5757 702 727 1
5758 702 775 1
5759 702 777 1
5760 702 779 1
5761 702 788 1
5762 702 789 1
5763 702 790 1
5764 702 800 1
5765 702 802 1
5766 702 804 1
5767 703 704 1
5768 703 725 1
5769 703 727 1
5770 703 729 1
5771 703 777 1
5772 703 779 1
5773 703 781 1
5774 703 789 1
5775 703 790 1
5776 703 792 1
5777 703 802 1
5778 703 804 1
5779 703 806 1
5780 704 705 1
5781 704 727 1
5782 704 729 1
5783 704 731 1
5784 704 779 1
5785 704 781 1
5786 704 783 1
5787 704 790 1
5788 704 792 1
5789 704 794 1
5790 704 804 1
5791 704 806 1
5792 704 808 1
5793 705 706 1
5794 705 729 1
5795 705 731 1
5796 705 733 1
5797 705 781 1
5798 705 783 1
5799 705 785 1
5800 705 792 1
5801 705 794 1
5802 705 796 1
5803 705 806 1
5804 705 808 1
5805 705 810 1
5806 706 731 1
5807 706 733 1
5808 706 783 1
5809 706 785 1
5810 706 794 1
5811 706 796 1
5812 706 808 1
5813 706 810 1
5814 707 711 1
5815 707 712 1
5816 707 713 1
5817 707 774 1
5818 707 776 1
5819 707 778 1
5820 707 789 1
5821 707 790 1
5822 707 792 1
5823 707 813 1
5824 707 814 1
5825 707 815 1
5826 708 784 1
5827 708 786 1
5828 708 811 1
5829 708 817 1
5830 701 709 1
5831 709 710 1
5832 709 772 1
5833 709 773 1
5834 709 786 1
5835 709 787 1
5836 709 788 1
5837 709 800 1
5838 709 811 1
5839 701 710 1
5840 702 710 1
5841 710 711 1
5842 710 772 1
5843 710 773 1
5844 710 774 1
5845 710 787 1
5846 710 788 1
5847 710 789 1
5848 710 800 1
5849 710 802 1
5850 701 711 1
5851 702 711 1
5852 703 711 1
5853 711 712 1
5854 711 773 1
5855 711 774 1
5856 711 776 1
5857 711 788 1
5858 711 789 1
5859 711 790 1
5860 711 800 1
5861 711 802 1
5862 711 804 1
5863 702 712 1
5864 703 712 1
5865 704 712 1
5866 712 713 1
5867 712 774 1
5868 712 776 1
5869 712 778 1
5870 712 789 1
5871 712 790 1
5872 712 792 1
5873 712 802 1
5874 712 804 1
5875 712 806 1
5876 703 713 1
5877 704 713 1
5878 705 713 1
5879 713 714 1
5880 713 776 1
5881 713 778 1
5882 713 780 1
5883 713 790 1
5884 713 792 1
5885 713 794 1
5886 713 804 1
5887 713 806 1
5888 713 808 1
5889 704 714 1
5890 705 714 1
5891 706 714 1
5892 714 715 1
5893 714 778 1
5894 714 780 1
5895 714 782 1
5896 714 792 1
5897 714 794 1
5898 714 796 1
5899 714 806 1
5900 714 808 1
5901 714 810 1
5902 705 715 1
5903 706 715 1
5904 715 780 1
5905 715 782 1
5906 715 794 1
5907 715 796 1
5908 715 808 1
5909 715 810 1
5910 716 761 1
5911 716 767 1
5912 716 768 1
5913 716 769 1
5914 716 869 1
5915 716 871 1
5916 716 873 1
5917 716 884 1
5918 716 886 1
5919 716 896 1
5920 716 898 1
5921 716 717 1
5922 717 718 1
5923 717 724 1
5924 717 761 1
5925 717 869 1
5926 717 871 1
5927 717 873 1
5928 717 883 1
5929 717 896 1
5930 717 898 1
5931 716 718 1
5932 718 719 1
5933 718 761 1
5934 718 762 1
5935 718 871 1
5936 718 873 1
5937 718 875 1
5938 718 883 1
5939 718 885 1
5940 718 896 1
5941 718 898 1
5942 718 900 1
5943 719 720 1
5944 719 761 1
5945 719 762 1
5946 719 763 1
5947 719 873 1
5948 719 875 1
5949 719 877 1
5950 719 883 1
5951 719 885 1
5952 719 887 1
5953 719 898 1
5954 719 900 1
5955 719 902 1
5956 720 721 1
5957 720 762 1
5958 720 763 1
5959 720 764 1
5960 720 875 1
5961 720 877 1
5962 720 879 1
5963 720 885 1
5964 720 887 1
5965 720 889 1
5966 720 900 1
5967 720 902 1
5968 720 904 1
5969 721 722 1
5970 721 763 1
5971 721 764 1
5972 721 765 1
5973 721 877 1
5974 721 879 1
5975 721 881 1
5976 721 887 1
5977 721 889 1
5978 721 891 1
5979 721 902 1
5980 721 904 1
5981 721 906 1
5982 722 723 1
5983 722 764 1
5984 722 765 1
5985 722 766 1
5986 722 867 1
5987 722 879 1
5988 722 881 1
5989 722 882 1
5990 722 889 1
5991 722 891 1
5992 722 893 1
5993 722 904 1
5994 722 906 1
5995 723 765 1
5996 723 766 1
5997 723 867 1
5998 723 881 1
5999 723 882 1
6000 723 891 1
6001 723 893 1
6002 723 906 1
6003 716 724 1
6004 724 767 1
6005 724 768 1
6006 724 869 1
6007 724 871 1
6008 724 884 1
6009 724 896 1
6010 725 727 1
6011 725 739 1
6012 725 775 1
6013 725 777 1
6014 725 779 1
6015 725 791 1
6016 725 793 1
6017 725 800 1
6018 725 802 1
6019 725 804 1
6020 726 728 1
6021 726 737 1
6022 726 738 1
6023 726 740 1
6024 726 801 1
6025 726 803 1
6026 726 805 1
6027 726 850 1
6028 726 851 1
6029 726 852 1
6030 726 868 1
6031 726 870 1
6032 726 872 1
6033 727 729 1
6034 727 739 1
6035 727 741 1
6036 727 777 1
6037 727 779 1
6038 727 781 1
6039 727 791 1
6040 727 793 1
6041 727 795 1
6042 727 802 1
6043 727 804 1
6044 727 806 1
6045 728 730 1
6046 728 738 1
6047 728 740 1
6048 728 742 1
6049 728 803 1
6050 728 805 1
6051 728 807 1
6052 728 851 1
6053 728 852 1
6054 728 853 1
6055 728 870 1
6056 728 872 1
6057 728 874 1
6058 729 731 1
6059 729 739 1
6060 729 741 1
6061 729 743 1
6062 729 779 1
6063 729 781 1
6064 729 783 1
6065 729 793 1
6066 729 795 1
6067 729 797 1
6068 729 804 1
6069 729 806 1
6070 729 808 1
6071 730 732 1
6072 730 740 1
6073 730 742 1
6074 730 744 1
6075 730 805 1
6076 730 807 1
6077 730 809 1
6078 730 852 1
6079 730 853 1
6080 730 854 1
6081 730 872 1
6082 730 874 1
6083 730 876 1
6084 731 733 1
6085 731 741 1
6086 731 743 1
6087 731 745 1
6088 731 781 1
6089 731 783 1
6090 731 785 1
6091 731 795 1
6092 731 797 1
6093 731 798 1
6094 731 806 1
6095 731 808 1
6096 731 810 1
6097 732 734 1
6098 732 742 1
6099 732 744 1
6100 732 746 1
6101 732 807 1
6102 732 809 1
6103 732 853 1
6104 732 854 1
6105 732 855 1
6106 732 857 1
6107 732 874 1
6108 732 876 1
6109 732 878 1
6110 733 743 1
6111 733 745 1
6112 733 783 1
6113 733 785 1
6114 733 797 1
6115 733 798 1
6116 733 808 1
6117 733 810 1
6118 734 735 1
6119 734 744 1
6120 734 746 1
6121 734 748 1
6122 734 809 1
6123 734 848 1
6124 734 854 1
6125 734 855 1
6126 734 856 1
6127 734 857 1
6128 734 876 1
6129 734 878 1
6130 734 880 1
6131 735 746 1
6132 735 748 1
6133 735 848 1
6134 735 855 1
6135 735 856 1
6136 735 857 1
6137 735 878 1
6138 735 880 1
6139 736 847 1
6140 736 849 1
6141 737 738 1
6142 737 749 1
6143 737 751 1
6144 737 850 1
6145 737 851 1
6146 737 868 1
6147 737 870 1
6148 737 883 1
6149 738 740 1
6150 738 749 1
6151 738 751 1
6152 738 753 1
6153 738 850 1
6154 738 851 1
6155 738 852 1
6156 738 868 1
6157 738 870 1
6158 738 872 1
6159 738 883 1
6160 738 885 1
6161 739 741 1
6162 739 750 1
6163 739 752 1
6164 739 754 1
6165 739 777 1
6166 739 779 1
6167 739 781 1
6168 739 791 1
6169 739 793 1
6170 739 795 1
6171 739 805 1
6172 739 807 1
6173 739 809 1
6174 740 742 1
6175 740 751 1
6176 740 753 1
6177 740 755 1
6178 740 851 1
6179 740 852 1
6180 740 853 1
6181 740 870 1
6182 740 872 1
6183 740 874 1
6184 740 883 1
6185 740 885 1
6186 740 887 1
6187 741 743 1
6188 741 752 1
6189 741 754 1
6190 741 756 1
6191 741 779 1
6192 741 781 1
6193 741 783 1
6194 741 793 1
6195 741 795 1
6196 741 797 1
6197 741 807 1
6198 741 809 1
6199 741 857 1
6200 742 744 1
6201 742 753 1
6202 742 755 1
6203 742 757 1
6204 742 852 1
6205 742 853 1
6206 742 854 1
6207 742 872 1
6208 742 874 1
6209 742 876 1
6210 742 885 1
6211 742 887 1
6212 742 889 1
6213 743 745 1
6214 743 754 1
6215 743 756 1
6216 743 758 1
6217 743 781 1
6218 743 783 1
6219 743 785 1
6220 743 795 1
6221 743 797 1
6222 743 798 1
6223 743 809 1
6224 743 848 1
6225 743 857 1
6226 744 746 1
6227 744 755 1
6228 744 757 1
6229 744 759 1
6230 744 853 1
6231 744 854 1
6232 744 855 1
6233 744 874 1
6234 744 876 1
6235 744 878 1
6236 744 887 1
6237 744 889 1
6238 744 891 1
6239 745 756 1
6240 745 758 1
6241 745 783 1
6242 745 785 1
6243 745 797 1
6244 745 798 1
6245 745 848 1
6246 745 857 1
6247 746 748 1
6248 746 757 1
6249 746 759 1
6250 746 760 1
6251 746 854 1
6252 746 855 1
6253 746 856 1
6254 746 876 1
6255 746 878 1
6256 746 880 1
6257 746 889 1
6258 746 891 1
6259 746 893 1
6260 747 799 1
6261 747 849 1
6262 748 759 1
6263 748 760 1
6264 748 855 1
6265 748 856 1
6266 748 878 1
6267 748 880 1
6268 748 891 1
6269 748 893 1
6270 717 749 1
6271 718 749 1
6272 749 751 1
6273 749 868 1
6274 749 870 1
6275 749 883 1
6276 749 896 1
6277 749 898 1
6278 726 750 1
6279 728 750 1
6280 730 750 1
6281 750 752 1
6282 750 791 1
6283 750 793 1
6284 750 803 1
6285 750 805 1
6286 750 807 1
6287 750 851 1
6288 750 852 1
6289 750 853 1
6290 717 751 1
6291 718 751 1
6292 719 751 1
6293 751 753 1
6294 751 868 1
6295 751 870 1
6296 751 872 1
6297 751 883 1
6298 751 885 1
6299 751 896 1
6300 751 898 1
6301 751 900 1
6302 728 752 1
6303 730 752 1
6304 732 752 1
6305 752 754 1
6306 752 791 1
6307 752 793 1
6308 752 795 1
6309 752 805 1
6310 752 807 1
6311 752 809 1
6312 752 852 1
6313 752 853 1
6314 752 854 1
6315 718 753 1
6316 719 753 1
6317 720 753 1
6318 753 755 1
6319 753 870 1
6320 753 872 1
6321 753 874 1
6322 753 883 1
6323 753 885 1
6324 753 887 1
6325 753 898 1
6326 753 900 1
6327 753 902 1
6328 730 754 1
6329 732 754 1
6330 734 754 1
6331 754 756 1
6332 754 793 1
6333 754 795 1
6334 754 797 1
6335 754 807 1
6336 754 809 1
6337 754 853 1
6338 754 854 1
6339 754 855 1
6340 754 857 1
6341 719 755 1
6342 720 755 1
6343 721 755 1
6344 755 757 1
6345 755 872 1
6346 755 874 1
6347 755 876 1
6348 755 885 1
6349 755 887 1
6350 755 889 1
6351 755 900 1
6352 755 902 1
6353 755 904 1
6354 732 756 1
6355 734 756 1
6356 735 756 1
6357 756 758 1
6358 756 795 1
6359 756 797 1
6360 756 798 1
6361 756 809 1
6362 756 848 1
6363 756 854 1
6364 756 855 1
6365 756 856 1
6366 756 857 1
6367 720 757 1
6368 721 757 1
6369 722 757 1
6370 757 759 1
6371 757 874 1
6372 757 876 1
6373 757 878 1
6374 757 887 1
6375 757 889 1
6376 757 891 1
6377 757 902 1
6378 757 904 1
6379 757 906 1
6380 734 758 1
6381 735 758 1
6382 758 797 1
6383 758 798 1
6384 758 848 1
6385 758 855 1
6386 758 856 1
6387 758 857 1
6388 721 759 1
6389 722 759 1
6390 723 759 1
6391 759 760 1
6392 759 867 1
6393 759 876 1
6394 759 878 1
6395 759 880 1
6396 759 889 1
6397 759 891 1
6398 759 893 1
6399 759 904 1
6400 759 906 1
6401 722 760 1
6402 723 760 1
6403 760 867 1
6404 760 878 1
6405 760 880 1
6406 760 891 1
6407 760 893 1
6408 760 906 1
6409 761 762 1
6410 761 768 1
6411 761 769 1
6412 761 770 1
6413 761 871 1
6414 761 873 1
6415 761 875 1
6416 761 884 1
6417 761 886 1
6418 761 888 1
6419 761 896 1
6420 761 898 1
6421 761 900 1
6422 762 763 1
6423 762 769 1
6424 762 770 1
6425 762 771 1
6426 762 873 1
6427 762 875 1
6428 762 877 1
6429 762 886 1
6430 762 888 1
6431 762 890 1
6432 762 898 1
6433 762 900 1
6434 762 902 1
6435 763 764 1
6436 763 770 1
6437 763 771 1
6438 763 827 1
6439 763 875 1
6440 763 877 1
6441 763 879 1
6442 763 888 1
6443 763 890 1
6444 763 892 1
6445 763 900 1
6446 763 902 1
6447 763 904 1
6448 764 765 1
6449 764 771 1
6450 764 827 1
6451 764 829 1
6452 764 877 1
6453 764 879 1
6454 764 881 1
6455 764 890 1
6456 764 892 1
6457 764 894 1
6458 764 902 1
6459 764 904 1
6460 764 906 1
6461 765 766 1
6462 765 827 1
6463 765 829 1
6464 765 831 1
6465 765 867 1
6466 765 879 1
6467 765 881 1
6468 765 882 1
6469 765 892 1
6470 765 894 1
6471 765 895 1
6472 765 904 1
6473 765 906 1
6474 766 829 1
6475 766 831 1
6476 766 867 1
6477 766 881 1
6478 766 882 1
6479 766 894 1
6480 766 895 1
6481 766 906 1
6482 767 768 1
6483 767 834 1
6484 767 836 1
6485 767 869 1
6486 767 871 1
6487 767 884 1
6488 767 897 1
6489 767 899 1
6490 768 769 1
6491 768 834 1
6492 768 836 1
6493 768 837 1
6494 768 869 1
6495 768 871 1
6496 768 873 1
6497 768 884 1
6498 768 886 1
6499 768 897 1
6500 768 899 1
6501 768 901 1
6502 769 770 1
6503 769 836 1
6504 769 837 1
6505 769 838 1
6506 769 871 1
6507 769 873 1
6508 769 875 1
6509 769 884 1
6510 769 886 1
6511 769 888 1
6512 769 899 1
6513 769 901 1
6514 769 903 1
6515 770 771 1
6516 770 837 1
6517 770 838 1
6518 770 839 1
6519 770 873 1
6520 770 875 1
6521 770 877 1
6522 770 886 1
6523 770 888 1
6524 770 890 1
6525 770 901 1
6526 770 903 1
6527 770 905 1
6528 771 827 1
6529 771 838 1
6530 771 839 1
6531 771 840 1
6532 771 875 1
6533 771 877 1
6534 771 879 1
6535 771 888 1
6536 771 890 1
6537 771 892 1
6538 771 903 1
6539 771 905 1
6540 771 907 1
6541 772 773 1
6542 772 786 1
6543 772 787 1
6544 772 788 1
6545 772 931 1
6546 772 937 1
6547 772 938 1
6548 773 774 1
6549 773 787 1
6550 773 788 1
6551 773 789 1
6552 773 931 1
6553 773 932 1
6554 773 938 1
6555 773 939 1
6556 774 776 1
6557 774 788 1
6558 774 789 1
6559 774 790 1
6560 774 931 1
6561 774 932 1
6562 774 933 1
6563 774 938 1
6564 774 939 1
6565 774 940 1
6566 775 777 1
6567 775 791 1
6568 775 925 1
6569 775 926 1
6570 775 945 1
6571 775 964 1
6572 776 778 1
6573 776 789 1
6574 776 790 1
6575 776 792 1
6576 776 920 1
6577 776 932 1
6578 776 933 1
6579 776 934 1
6580 776 939 1
6581 776 940 1
6582 776 941 1
6583 777 779 1
6584 777 791 1
6585 777 793 1
6586 777 925 1
6587 777 926 1
6588 777 927 1
6589 777 945 1
6590 777 946 1
6591 777 964 1
6592 777 966 1
6593 778 780 1
6594 778 790 1
6595 778 792 1
6596 778 794 1
6597 778 908 1
6598 778 920 1
6599 778 933 1
6600 778 934 1
6601 778 935 1
6602 778 940 1
6603 778 941 1
6604 778 942 1
6605 779 781 1
6606 779 791 1
6607 779 793 1
6608 779 795 1
6609 779 922 1
6610 779 926 1
6611 779 927 1
6612 779 928 1
6613 779 945 1
6614 779 946 1
6615 779 964 1
6616 779 966 1
6617 779 968 1
6618 780 782 1
6619 780 792 1
6620 780 794 1
6621 780 796 1
6622 780 908 1
6623 780 920 1
6624 780 929 1
6625 780 934 1
6626 780 935 1
6627 780 936 1
6628 780 941 1
6629 780 942 1
6630 780 943 1
6631 781 783 1
6632 781 793 1
6633 781 795 1
6634 781 797 1
6635 781 921 1
6636 781 922 1
6637 781 923 1
6638 781 927 1
6639 781 928 1
6640 781 946 1
6641 781 966 1
6642 781 968 1
6643 781 970 1
6644 782 794 1
6645 782 796 1
6646 782 908 1
6647 782 929 1
6648 782 935 1
6649 782 936 1
6650 782 942 1
6651 782 943 1
6652 783 785 1
6653 783 795 1
6654 783 797 1
6655 783 798 1
6656 783 921 1
6657 783 922 1
6658 783 923 1
6659 783 924 1
6660 783 928 1
6661 783 958 1
6662 783 968 1
6663 783 970 1
6664 783 972 1
6665 784 786 1
6666 784 930 1
6667 784 937 1
6668 784 944 1
6669 785 797 1
6670 785 798 1
6671 785 921 1
6672 785 923 1
6673 785 924 1
6674 785 958 1
6675 785 970 1
6676 785 972 1
6677 786 787 1
6678 786 930 1
6679 786 937 1
6680 786 944 1
6681 787 788 1
6682 787 800 1
6683 787 931 1
6684 787 937 1
6685 787 938 1
6686 788 789 1
6687 788 800 1
6688 788 802 1
6689 788 931 1
6690 788 932 1
6691 788 938 1
6692 788 939 1
6693 788 945 1
6694 789 790 1
6695 789 800 1
6696 789 802 1
6697 789 804 1
6698 789 931 1
6699 789 932 1
6700 789 933 1
6701 789 938 1
6702 789 939 1
6703 789 940 1
6704 789 945 1
6705 789 946 1
6706 790 792 1
6707 790 802 1
6708 790 804 1
6709 790 806 1
6710 790 922 1
6711 790 932 1
6712 790 933 1
6713 790 934 1
6714 790 939 1
6715 790 940 1
6716 790 941 1
6717 790 945 1
6718 790 946 1
6719 791 793 1
6720 791 803 1
6721 791 805 1
6722 791 807 1
6723 791 925 1
6724 791 926 1
6725 791 927 1
6726 791 964 1
6727 791 966 1
6728 791 976 1
6729 791 979 1
6730 792 794 1
6731 792 804 1
6732 792 806 1
6733 792 808 1
6734 792 922 1
6735 792 923 1
6736 792 933 1
6737 792 934 1
6738 792 935 1
6739 792 940 1
6740 792 941 1
6741 792 942 1
6742 792 946 1
6743 793 795 1
6744 793 805 1
6745 793 807 1
6746 793 809 1
6747 793 926 1
6748 793 927 1
6749 793 928 1
6750 793 964 1
6751 793 966 1
6752 793 968 1
6753 793 979 1
6754 793 981 1
6755 794 796 1
6756 794 806 1
6757 794 808 1
6758 794 810 1
6759 794 922 1
6760 794 923 1
6761 794 924 1
6762 794 934 1
6763 794 935 1
6764 794 936 1
6765 794 941 1
6766 794 942 1
6767 794 943 1
6768 795 797 1
6769 795 807 1
6770 795 809 1
6771 795 857 1
6772 795 921 1
6773 795 927 1
6774 795 928 1
6775 795 966 1
6776 795 968 1
6777 795 970 1
6778 795 979 1
6779 795 981 1
6780 795 983 1
6781 796 808 1
6782 796 810 1
6783 796 923 1
6784 796 924 1
6785 796 935 1
6786 796 936 1
6787 796 942 1
6788 796 943 1
6789 797 798 1
6790 797 809 1
6791 797 848 1
6792 797 857 1
6793 797 921 1
6794 797 928 1
6795 797 958 1
6796 797 968 1
6797 797 970 1
6798 797 972 1
6799 797 981 1
6800 797 983 1
6801 797 985 1
6802 798 848 1
6803 798 857 1
6804 798 921 1
6805 798 958 1
6806 798 970 1
6807 798 972 1
6808 798 983 1
6809 798 985 1
6810 799 849 1
6811 799 987 1
6812 775 800 1
6813 777 800 1
6814 800 802 1
6815 800 925 1
6816 800 926 1
6817 800 938 1
6818 800 939 1
6819 800 945 1
6820 801 803 1
6821 801 850 1
6822 801 851 1
6823 801 976 1
6824 801 990 1
6825 801 992 1
6826 775 802 1
6827 777 802 1
6828 779 802 1
6829 802 804 1
6830 802 925 1
6831 802 926 1
6832 802 927 1
6833 802 938 1
6834 802 939 1
6835 802 940 1
6836 802 945 1
6837 802 946 1
6838 803 805 1
6839 803 850 1
6840 803 851 1
6841 803 852 1
6842 803 964 1
6843 803 976 1
6844 803 990 1
6845 803 992 1
6846 803 994 1
6847 777 804 1
6848 779 804 1
6849 781 804 1
6850 804 806 1
6851 804 922 1
6852 804 926 1
6853 804 927 1
6854 804 928 1
6855 804 939 1
6856 804 940 1
6857 804 941 1
6858 804 945 1
6859 804 946 1
6860 805 807 1
6861 805 851 1
6862 805 852 1
6863 805 853 1
6864 805 964 1
6865 805 966 1
6866 805 976 1
6867 805 979 1
6868 805 992 1
6869 805 994 1
6870 805 996 1
6871 779 806 1
6872 781 806 1
6873 783 806 1
6874 806 808 1
6875 806 921 1
6876 806 922 1
6877 806 923 1
6878 806 927 1
6879 806 928 1
6880 806 940 1
6881 806 941 1
6882 806 942 1
6883 806 946 1
6884 807 809 1
6885 807 852 1
6886 807 853 1
6887 807 854 1
6888 807 957 1
6889 807 964 1
6890 807 966 1
6891 807 968 1
6892 807 979 1
6893 807 981 1
6894 807 994 1
6895 807 996 1
6896 781 808 1
6897 783 808 1
6898 785 808 1
6899 808 810 1
6900 808 921 1
6901 808 922 1
6902 808 923 1
6903 808 924 1
6904 808 928 1
6905 808 941 1
6906 808 942 1
6907 808 943 1
6908 808 958 1
6909 809 853 1
6910 809 854 1
6911 809 855 1
6912 809 857 1
6913 809 957 1
6914 809 959 1
6915 809 966 1
6916 809 968 1
6917 809 970 1
6918 809 979 1
6919 809 981 1
6920 809 983 1
6921 809 996 1
6922 783 810 1
6923 785 810 1
6924 810 921 1
6925 810 923 1
6926 810 924 1
6927 810 942 1
6928 810 943 1
6929 810 958 1
6930 772 811 1
6931 784 811 1
6932 786 811 1
6933 787 811 1
6934 811 919 1
6935 811 930 1
6936 811 937 1
6937 811 812 1
6938 812 817 1
6939 812 919 1
6940 812 930 1
6941 773 813 1
6942 774 813 1
6943 776 813 1
6944 813 814 1
6945 813 931 1
6946 813 932 1
6947 813 933 1
6948 774 814 1
6949 776 814 1
6950 778 814 1
6951 814 815 1
6952 814 916 1
6953 814 920 1
6954 814 932 1
6955 814 933 1
6956 814 934 1
6957 776 815 1
6958 778 815 1
6959 780 815 1
6960 815 908 1
6961 815 916 1
6962 815 917 1
6963 815 920 1
6964 815 933 1
6965 815 934 1
6966 815 935 1
6967 780 816 1
6968 782 816 1
6969 816 908 1
6970 816 917 1
6971 816 918 1
6972 816 929 1
6973 816 935 1
6974 816 936 1
6975 784 817 1
6976 786 817 1
6977 811 817 1
6978 817 919 1
6979 817 930 1
6980 817 937 1
6981 818 819 1
6982 818 825 1
6983 818 861 1
6984 818 862 1
6985 818 897 1
6986 818 899 1
6987 818 901 1
6988 818 909 1
6989 818 910 1
6990 819 820 1
6991 819 825 1
6992 819 826 1
6993 819 861 1
6994 819 862 1
6995 819 863 1
6996 819 899 1
6997 819 901 1
6998 819 903 1
6999 819 909 1
7000 819 910 1
7001 819 911 1
7002 820 821 1
7003 820 825 1
7004 820 826 1
7005 820 828 1
7006 820 862 1
7007 820 863 1
7008 820 864 1
7009 820 901 1
7010 820 903 1
7011 820 905 1
7012 820 910 1
7013 820 911 1
7014 820 912 1
7015 821 822 1
7016 821 826 1
7017 821 828 1
7018 821 830 1
7019 821 863 1
7020 821 864 1
7021 821 865 1
7022 821 903 1
7023 821 905 1
7024 821 907 1
7025 821 911 1
7026 821 912 1
7027 821 913 1
7028 822 823 1
7029 822 828 1
7030 822 830 1
7031 822 832 1
7032 822 859 1
7033 822 864 1
7034 822 865 1
7035 822 866 1
7036 822 905 1
7037 822 907 1
7038 822 912 1
7039 822 913 1
7040 822 914 1
7041 823 824 1
7042 823 830 1
7043 823 832 1
7044 823 833 1
7045 823 858 1
7046 823 859 1
7047 823 860 1
7048 823 865 1
7049 823 866 1
7050 823 907 1
7051 823 913 1
7052 823 914 1
7053 823 915 1
7054 824 832 1
7055 824 833 1
7056 824 858 1
7057 824 859 1
7058 824 860 1
7059 824 866 1
7060 824 914 1
7061 824 915 1
7062 825 826 1
7063 825 861 1
7064 825 862 1
7065 825 863 1
7066 825 909 1
7067 825 910 1
7068 825 911 1
7069 826 828 1
7070 826 862 1
7071 826 863 1
7072 826 864 1
7073 826 910 1
7074 826 911 1
7075 826 912 1
7076 827 829 1
7077 827 839 1
7078 827 840 1
7079 827 842 1
7080 827 859 1
7081 827 877 1
7082 827 879 1
7083 827 881 1
7084 827 890 1
7085 827 892 1
7086 827 894 1
7087 827 905 1
7088 827 907 1
7089 828 830 1
7090 828 863 1
7091 828 864 1
7092 828 865 1
7093 828 911 1
7094 828 912 1
7095 828 913 1
7096 829 831 1
7097 829 840 1
7098 829 842 1
7099 829 844 1
7100 829 859 1
7101 829 860 1
7102 829 879 1
7103 829 881 1
7104 829 882 1
7105 829 892 1
7106 829 894 1
7107 829 895 1
7108 829 907 1
7109 830 832 1
7110 830 864 1
7111 830 865 1
7112 830 866 1
7113 830 912 1
7114 830 913 1
7115 830 914 1
7116 831 842 1
7117 831 844 1
7118 831 859 1
7119 831 860 1
7120 831 881 1
7121 831 882 1
7122 831 894 1
7123 831 895 1
7124 832 833 1
7125 832 858 1
7126 832 865 1
7127 832 866 1
7128 832 913 1
7129 832 914 1
7130 832 915 1
7131 833 858 1
7132 833 866 1
7133 833 914 1
7134 833 915 1
7135 818 834 1
7136 834 836 1
7137 834 845 1
7138 834 861 1
7139 834 884 1
7140 834 897 1
7141 834 899 1
7142 812 835 1
7143 835 919 1
7144 818 836 1
7145 819 836 1
7146 836 837 1
7147 836 861 1
7148 836 862 1
7149 836 884 1
7150 836 886 1
7151 836 897 1
7152 836 899 1
7153 836 901 1
7154 818 837 1
7155 819 837 1
7156 820 837 1
7157 837 838 1
7158 837 861 1
7159 837 862 1
7160 837 863 1
7161 837 884 1
7162 837 886 1
7163 837 888 1
7164 837 899 1
7165 837 901 1
7166 837 903 1
7167 819 838 1
7168 820 838 1
7169 821 838 1
7170 838 839 1
7171 838 862 1
7172 838 863 1
7173 838 864 1
7174 838 886 1
7175 838 888 1
7176 838 890 1
7177 838 901 1
7178 838 903 1
7179 838 905 1
7180 820 839 1
7181 821 839 1
7182 822 839 1
7183 839 840 1
7184 839 863 1
7185 839 864 1
7186 839 865 1
7187 839 888 1
7188 839 890 1
7189 839 892 1
7190 839 903 1
7191 839 905 1
7192 839 907 1
7193 821 840 1
7194 822 840 1
7195 823 840 1
7196 840 842 1
7197 840 859 1
7198 840 864 1
7199 840 865 1
7200 840 866 1
7201 840 890 1
7202 840 892 1
7203 840 894 1
7204 840 905 1
7205 840 907 1
7206 813 841 1
7207 814 841 1
7208 815 841 1
7209 841 843 1
7210 841 916 1
7211 841 920 1
7212 822 842 1
7213 823 842 1
7214 824 842 1
7215 842 844 1
7216 842 858 1
7217 842 859 1
7218 842 860 1
7219 842 865 1
7220 842 866 1
7221 842 892 1
7222 842 894 1
7223 842 895 1
7224 842 907 1
7225 814 843 1
7226 815 843 1
7227 843 908 1
7228 843 916 1
7229 843 917 1
7230 843 920 1
7231 823 844 1
7232 824 844 1
7233 844 858 1
7234 844 859 1
7235 844 860 1
7236 844 866 1
7237 844 894 1
7238 844 895 1
7239 845 897 1
7240 816 846 1
7241 846 908 1
7242 846 917 1
7243 846 918 1
7244 846 929 1
7245 847 961 1
7246 847 962 1
7247 847 975 1
7248 847 987 1
7249 848 855 1
7250 848 856 1
7251 848 959 1
7252 848 960 1
7253 848 970 1
7254 848 972 1
7255 848 983 1
7256 848 985 1
7257 847 849 1
7258 849 961 1
7259 849 962 1
7260 849 987 1
7261 850 851 1
7262 850 868 1
7263 850 870 1
7264 850 962 1
7265 850 963 1
7266 850 965 1
7267 850 976 1
7268 850 990 1
7269 850 992 1
7270 851 852 1
7271 851 868 1
7272 851 870 1
7273 851 872 1
7274 851 963 1
7275 851 965 1
7276 851 967 1
7277 851 976 1
7278 851 990 1
7279 851 992 1
7280 851 994 1
7281 852 853 1
7282 852 870 1
7283 852 872 1
7284 852 874 1
7285 852 965 1
7286 852 967 1
7287 852 969 1
7288 852 976 1
7289 852 979 1
7290 852 992 1
7291 852 994 1
7292 852 996 1
7293 853 854 1
7294 853 872 1
7295 853 874 1
7296 853 876 1
7297 853 957 1
7298 853 967 1
7299 853 969 1
7300 853 971 1
7301 853 979 1
7302 853 981 1
7303 853 994 1
7304 853 996 1
7305 854 855 1
7306 854 874 1
7307 854 876 1
7308 854 878 1
7309 854 957 1
7310 854 959 1
7311 854 969 1
7312 854 971 1
7313 854 973 1
7314 854 979 1
7315 854 981 1
7316 854 983 1
7317 854 996 1
7318 855 856 1
7319 855 876 1
7320 855 878 1
7321 855 880 1
7322 855 957 1
7323 855 959 1
7324 855 960 1
7325 855 971 1
7326 855 973 1
7327 855 974 1
7328 855 981 1
7329 855 983 1
7330 855 985 1
7331 856 878 1
7332 856 880 1
7333 856 959 1
7334 856 960 1
7335 856 973 1
7336 856 974 1
7337 856 983 1
7338 856 985 1
7339 848 857 1
7340 854 857 1
7341 855 857 1
7342 856 857 1
7343 857 957 1
7344 857 959 1
7345 857 960 1
7346 857 968 1
7347 857 970 1
7348 857 972 1
7349 857 981 1
7350 857 983 1
7351 857 985 1
7352 858 914 1
7353 858 915 1
7354 858 1008 1
7355 858 1009 1
7356 858 1022 1
7357 858 1023 1
7358 858 1029 1
7359 858 1030 1
7360 858 859 1
7361 859 860 1
7362 859 865 1
7363 859 866 1
7364 859 1007 1
7365 859 1008 1
7366 859 1009 1
7367 859 1017 1
7368 859 1019 1
7369 859 1021 1
7370 859 1028 1
7371 859 1029 1
7372 859 1030 1
7373 858 860 1
7374 860 866 1
7375 860 1008 1
7376 860 1009 1
7377 860 1019 1
7378 860 1021 1
7379 860 1029 1
7380 860 1030 1
7381 861 862 1
7382 861 909 1
7383 861 910 1
7384 861 1014 1
7385 861 1024 1
7386 861 1025 1
7387 861 1033 1
7388 862 863 1
7389 862 909 1
7390 862 910 1
7391 862 911 1
7392 862 1014 1
7393 862 1016 1
7394 862 1024 1
7395 862 1025 1
7396 862 1026 1
7397 862 1033 1
7398 862 1034 1
7399 863 864 1
7400 863 910 1
7401 863 911 1
7402 863 912 1
7403 863 1006 1
7404 863 1014 1
7405 863 1016 1
7406 863 1018 1
7407 863 1025 1
7408 863 1026 1
7409 863 1027 1
7410 863 1033 1
7411 863 1034 1
7412 864 865 1
7413 864 911 1
7414 864 912 1
7415 864 913 1
7416 864 1006 1
7417 864 1007 1
7418 864 1016 1
7419 864 1018 1
7420 864 1020 1
7421 864 1026 1
7422 864 1027 1
7423 864 1028 1
7424 864 1034 1
7425 865 866 1
7426 865 912 1
7427 865 913 1
7428 865 914 1
7429 865 1006 1
7430 865 1007 1
7431 865 1008 1
7432 865 1018 1
7433 865 1020 1
7434 865 1022 1
7435 865 1027 1
7436 865 1028 1
7437 865 1029 1
7438 858 866 1
7439 866 913 1
7440 866 914 1
7441 866 915 1
7442 866 1007 1
7443 866 1008 1
7444 866 1009 1
7445 866 1020 1
7446 866 1022 1
7447 866 1023 1
7448 866 1028 1
7449 866 1029 1
7450 866 1030 1
7451 867 881 1
7452 867 882 1
7453 867 950 1
7454 867 951 1
7455 867 986 1
7456 867 988 1
7457 867 998 1
7458 867 999 1
7459 868 870 1
7460 868 883 1
7461 868 962 1
7462 868 963 1
7463 868 965 1
7464 868 977 1
7465 868 978 1
7466 868 990 1
7467 868 992 1
7468 869 871 1
7469 869 884 1
7470 869 952 1
7471 869 953 1
7472 869 989 1
7473 869 991 1
7474 869 993 1
7475 869 1010 1
7476 869 1011 1
7477 870 872 1
7478 870 883 1
7479 870 885 1
7480 870 963 1
7481 870 965 1
7482 870 967 1
7483 870 977 1
7484 870 978 1
7485 870 980 1
7486 870 990 1
7487 870 992 1
7488 870 994 1
7489 871 873 1
7490 871 884 1
7491 871 886 1
7492 871 952 1
7493 871 953 1
7494 871 954 1
7495 871 991 1
7496 871 993 1
7497 871 995 1
7498 871 1010 1
7499 871 1011 1
7500 871 1012 1
7501 872 874 1
7502 872 883 1
7503 872 885 1
7504 872 887 1
7505 872 965 1
7506 872 967 1
7507 872 969 1
7508 872 978 1
7509 872 980 1
7510 872 982 1
7511 872 992 1
7512 872 994 1
7513 872 996 1
7514 873 875 1
7515 873 884 1
7516 873 886 1
7517 873 888 1
7518 873 953 1
7519 873 954 1
7520 873 955 1
7521 873 993 1
7522 873 995 1
7523 873 997 1
7524 873 1011 1
7525 873 1012 1
7526 873 1013 1
7527 874 876 1
7528 874 885 1
7529 874 887 1
7530 874 889 1
7531 874 957 1
7532 874 967 1
7533 874 969 1
7534 874 971 1
7535 874 980 1
7536 874 982 1
7537 874 984 1
7538 874 994 1
7539 874 996 1
7540 875 877 1
7541 875 886 1
7542 875 888 1
7543 875 890 1
7544 875 948 1
7545 875 954 1
7546 875 955 1
7547 875 956 1
7548 875 995 1
7549 875 997 1
7550 875 1012 1
7551 875 1013 1
7552 875 1015 1
7553 876 878 1
7554 876 887 1
7555 876 889 1
7556 876 891 1
7557 876 957 1
7558 876 959 1
7559 876 969 1
7560 876 971 1
7561 876 973 1
7562 876 982 1
7563 876 984 1
7564 876 986 1
7565 876 996 1
7566 877 879 1
7567 877 888 1
7568 877 890 1
7569 877 892 1
7570 877 947 1
7571 877 948 1
7572 877 949 1
7573 877 955 1
7574 877 956 1
7575 877 997 1
7576 877 1013 1
7577 877 1015 1
7578 877 1017 1
7579 878 880 1
7580 878 889 1
7581 878 891 1
7582 878 893 1
7583 878 957 1
7584 878 959 1
7585 878 960 1
7586 878 971 1
7587 878 973 1
7588 878 974 1
7589 878 984 1
7590 878 986 1
7591 878 988 1
7592 879 881 1
7593 879 890 1
7594 879 892 1
7595 879 894 1
7596 879 947 1
7597 879 948 1
7598 879 949 1
7599 879 950 1
7600 879 956 1
7601 879 998 1
7602 879 1015 1
7603 879 1017 1
7604 879 1019 1
7605 880 891 1
7606 880 893 1
7607 880 959 1
7608 880 960 1
7609 880 973 1
7610 880 974 1
7611 880 986 1
7612 880 988 1
7613 881 882 1
7614 881 892 1
7615 881 894 1
7616 881 895 1
7617 881 947 1
7618 881 949 1
7619 881 950 1
7620 881 951 1
7621 881 998 1
7622 881 999 1
7623 881 1017 1
7624 881 1019 1
7625 881 1021 1
7626 882 894 1
7627 882 895 1
7628 882 950 1
7629 882 951 1
7630 882 998 1
7631 882 999 1
7632 882 1019 1
7633 882 1021 1
7634 883 885 1
7635 883 896 1
7636 883 898 1
7637 883 900 1
7638 883 963 1
7639 883 965 1
7640 883 967 1
7641 883 977 1
7642 883 978 1
7643 883 980 1
7644 883 993 1
7645 883 995 1
7646 883 997 1
7647 884 886 1
7648 884 897 1
7649 884 899 1
7650 884 901 1
7651 884 952 1
7652 884 953 1
7653 884 954 1
7654 884 1010 1
7655 884 1011 1
7656 884 1012 1
7657 884 1024 1
7658 884 1025 1
7659 885 887 1
7660 885 898 1
7661 885 900 1
7662 885 902 1
7663 885 948 1
7664 885 965 1
7665 885 967 1
7666 885 969 1
7667 885 978 1
7668 885 980 1
7669 885 982 1
7670 885 995 1
7671 885 997 1
7672 886 888 1
7673 886 899 1
7674 886 901 1
7675 886 903 1
7676 886 953 1
7677 886 954 1
7678 886 955 1
7679 886 1011 1
7680 886 1012 1
7681 886 1013 1
7682 886 1024 1
7683 886 1025 1
7684 886 1026 1
7685 887 889 1
7686 887 900 1
7687 887 902 1
7688 887 904 1
7689 887 948 1
7690 887 949 1
7691 887 967 1
7692 887 969 1
7693 887 971 1
7694 887 980 1
7695 887 982 1
7696 887 984 1
7697 887 997 1
7698 888 890 1
7699 888 901 1
7700 888 903 1
7701 888 905 1
7702 888 954 1
7703 888 955 1
7704 888 956 1
7705 888 1012 1
7706 888 1013 1
7707 888 1015 1
7708 888 1025 1
7709 888 1026 1
7710 888 1027 1
7711 889 891 1
7712 889 902 1
7713 889 904 1
7714 889 906 1
7715 889 948 1
7716 889 949 1
7717 889 950 1
7718 889 969 1
7719 889 971 1
7720 889 973 1
7721 889 982 1
7722 889 984 1
7723 889 986 1
7724 890 892 1
7725 890 903 1
7726 890 905 1
7727 890 907 1
7728 890 947 1
7729 890 955 1
7730 890 956 1
7731 890 1013 1
7732 890 1015 1
7733 890 1017 1
7734 890 1026 1
7735 890 1027 1
7736 890 1028 1
7737 867 891 1
7738 891 893 1
7739 891 904 1
7740 891 906 1
7741 891 949 1
7742 891 950 1
7743 891 951 1
7744 891 971 1
7745 891 973 1
7746 891 974 1
7747 891 984 1
7748 891 986 1
7749 891 988 1
7750 859 892 1
7751 892 894 1
7752 892 905 1
7753 892 907 1
7754 892 947 1
7755 892 956 1
7756 892 998 1
7757 892 1015 1
7758 892 1017 1
7759 892 1019 1
7760 892 1027 1
7761 892 1028 1
7762 892 1029 1
7763 867 893 1
7764 893 906 1
7765 893 950 1
7766 893 951 1
7767 893 973 1
7768 893 974 1
7769 893 986 1
7770 893 988 1
7771 859 894 1
7772 860 894 1
7773 894 895 1
7774 894 907 1
7775 894 947 1
7776 894 998 1
7777 894 999 1
7778 894 1017 1
7779 894 1019 1
7780 894 1021 1
7781 894 1028 1
7782 894 1029 1
7783 894 1030 1
7784 859 895 1
7785 860 895 1
7786 895 998 1
7787 895 999 1
7788 895 1019 1
7789 895 1021 1
7790 895 1029 1
7791 895 1030 1
7792 869 896 1
7793 871 896 1
7794 873 896 1
7795 896 898 1
7796 896 952 1
7797 896 953 1
7798 896 954 1
7799 896 977 1
7800 896 978 1
7801 896 991 1
7802 896 993 1
7803 896 995 1
7804 861 897 1
7805 897 899 1
7806 897 1010 1
7807 897 1011 1
7808 897 1024 1
7809 871 898 1
7810 873 898 1
7811 875 898 1
7812 898 900 1
7813 898 953 1
7814 898 954 1
7815 898 955 1
7816 898 977 1
7817 898 978 1
7818 898 980 1
7819 898 993 1
7820 898 995 1
7821 898 997 1
7822 861 899 1
7823 862 899 1
7824 899 901 1
7825 899 1010 1
7826 899 1011 1
7827 899 1012 1
7828 899 1024 1
7829 899 1025 1
7830 899 1033 1
7831 873 900 1
7832 875 900 1
7833 877 900 1
7834 900 902 1
7835 900 948 1
7836 900 954 1
7837 900 955 1
7838 900 956 1
7839 900 978 1
7840 900 980 1
7841 900 982 1
7842 900 995 1
7843 900 997 1
7844 861 901 1
7845 862 901 1
7846 863 901 1
7847 901 903 1
7848 901 1011 1
7849 901 1012 1
7850 901 1013 1
7851 901 1024 1
7852 901 1025 1
7853 901 1026 1
7854 901 1033 1
7855 901 1034 1
7856 875 902 1
7857 877 902 1
7858 879 902 1
7859 902 904 1
7860 902 947 1
7861 902 948 1
7862 902 949 1
7863 902 955 1
7864 902 956 1
7865 902 980 1
7866 902 982 1
7867 902 984 1
7868 902 997 1
7869 862 903 1
7870 863 903 1
7871 864 903 1
7872 903 905 1
7873 903 1006 1
7874 903 1012 1
7875 903 1013 1
7876 903 1015 1
7877 903 1025 1
7878 903 1026 1
7879 903 1027 1
7880 903 1033 1
7881 903 1034 1
7882 877 904 1
7883 879 904 1
7884 881 904 1
7885 904 906 1
7886 904 947 1
7887 904 948 1
7888 904 949 1
7889 904 950 1
7890 904 956 1
7891 904 982 1
7892 904 984 1
7893 904 986 1
7894 904 998 1
7895 863 905 1
7896 864 905 1
7897 865 905 1
7898 905 907 1
7899 905 1006 1
7900 905 1007 1
7901 905 1013 1
7902 905 1015 1
7903 905 1017 1
7904 905 1026 1
7905 905 1027 1
7906 905 1028 1
7907 905 1034 1
7908 867 906 1
7909 879 906 1
7910 881 906 1
7911 882 906 1
7912 906 947 1
7913 906 949 1
7914 906 950 1
7915 906 951 1
7916 906 984 1
7917 906 986 1
7918 906 988 1
7919 906 998 1
7920 906 999 1
7921 859 907 1
7922 864 907 1
7923 865 907 1
7924 866 907 1
7925 907 1006 1
7926 907 1007 1
7927 907 1008 1
7928 907 1015 1
7929 907 1017 1
7930 907 1019 1
7931 907 1027 1
7932 907 1028 1
7933 907 1029 1
7934 908 929 1
7935 908 934 1
7936 908 935 1
7937 908 936 1
7938 908 1001 1
7939 908 1002 1
7940 908 1003 1
7941 908 1031 1
7942 908 1032 1
7943 908 1036 1
7944 908 1037 1
7945 908 1039 1
7946 909 910 1
7947 909 1014 1
7948 909 1033 1
7949 910 911 1
7950 910 1014 1
7951 910 1016 1
7952 910 1033 1
7953 910 1034 1
7954 911 912 1
7955 911 1006 1
7956 911 1014 1
7957 911 1016 1
7958 911 1018 1
7959 911 1033 1
7960 911 1034 1
7961 912 913 1
7962 912 1006 1
7963 912 1007 1
7964 912 1016 1
7965 912 1018 1
7966 912 1020 1
7967 912 1034 1
7968 913 914 1
7969 913 1006 1
7970 913 1007 1
7971 913 1008 1
7972 913 1018 1
7973 913 1020 1
7974 913 1022 1
7975 914 915 1
7976 914 1007 1
7977 914 1008 1
7978 914 1009 1
7979 914 1020 1
7980 914 1022 1
7981 914 1023 1
7982 915 1008 1
7983 915 1009 1
7984 915 1022 1
7985 915 1023 1
7986 908 916 1
7987 916 917 1
7988 916 920 1
7989 916 1001 1
7990 916 1002 1
7991 916 1031 1
7992 908 917 1
7993 917 918 1
7994 917 920 1
7995 917 929 1
7996 917 1001 1
7997 917 1002 1
7998 917 1003 1
7999 917 1031 1
8000 917 1032 1
8001 908 918 1
8002 918 929 1
8003 918 1002 1
8004 918 1003 1
8005 918 1031 1
8006 918 1032 1
8007 919 930 1
8008 908 920 1
8009 920 933 1
8010 920 934 1
8011 920 935 1
8012 920 1000 1
8013 920 1001 1
8014 920 1002 1
8015 920 1031 1
8016 920 1036 1
8017 920 1037 1
8018 921 958 1
8019 921 968 1
8020 921 970 1
8021 921 972 1
8022 921 1038 1
8023 921 1040 1
8024 921 1041 1
8025 921 1049 1
8026 921 1051 1
8027 921 1052 1
8028 921 1056 1
8029 921 1057 1
8030 921 922 1
8031 922 923 1
8032 922 927 1
8033 922 928 1
8034 922 1038 1
8035 922 1040 1
8036 922 1045 1
8037 922 1046 1
8038 922 1048 1
8039 922 1055 1
8040 922 1056 1
8041 922 1057 1
8042 921 923 1
8043 923 924 1
8044 923 928 1
8045 923 958 1
8046 923 1038 1
8047 923 1040 1
8048 923 1041 1
8049 923 1046 1
8050 923 1048 1
8051 923 1050 1
8052 923 1056 1
8053 923 1057 1
8054 921 924 1
8055 924 958 1
8056 924 1040 1
8057 924 1041 1
8058 924 1048 1
8059 924 1050 1
8060 924 1057 1
8061 925 926 1
8062 925 964 1
8063 925 1035 1
8064 925 1053 1
8065 925 1054 1
8066 926 927 1
8067 926 964 1
8068 926 966 1
8069 926 1035 1
8070 926 1047 1
8071 926 1053 1
8072 926 1054 1
8073 926 1055 1
8074 927 928 1
8075 927 964 1
8076 927 966 1
8077 927 968 1
8078 927 1035 1
8079 927 1038 1
8080 927 1047 1
8081 927 1049 1
8082 927 1054 1
8083 927 1055 1
8084 927 1056 1
8085 921 928 1
8086 928 966 1
8087 928 968 1
8088 928 970 1
8089 928 1038 1
8090 928 1040 1
8091 928 1047 1
8092 928 1049 1
8093 928 1051 1
8094 928 1055 1
8095 928 1056 1
8096 928 1057 1
8097 929 935 1
8098 929 936 1
8099 929 1002 1
8100 929 1003 1
8101 929 1031 1
8102 929 1032 1
8103 929 1037 1
8104 929 1039 1
8105 930 937 1
8106 931 932 1
8107 931 938 1
8108 931 939 1
8109 931 1004 1
8110 931 1005 1
8111 931 1042 1
8112 931 1043 1
8113 931 1044 1
8114 932 933 1
8115 932 938 1
8116 932 939 1
8117 932 940 1
8118 932 1000 1
8119 932 1005 1
8120 932 1043 1
8121 932 1044 1
8122 932 1045 1
8123 933 934 1
8124 933 939 1
8125 933 940 1
8126 933 941 1
8127 933 1000 1
8128 933 1001 1
8129 933 1036 1
8130 933 1044 1
8131 933 1045 1
8132 933 1046 1
8133 934 935 1
8134 934 940 1
8135 934 941 1
8136 934 942 1
8137 934 1000 1
8138 934 1001 1
8139 934 1002 1
8140 934 1036 1
8141 934 1037 1
8142 934 1045 1
8143 934 1046 1
8144 934 1048 1
8145 935 936 1
8146 935 941 1
8147 935 942 1
8148 935 943 1
8149 935 1001 1
8150 935 1002 1
8151 935 1003 1
8152 935 1036 1
8153 935 1037 1
8154 935 1039 1
8155 935 1046 1
8156 935 1048 1
8157 935 1050 1
8158 936 942 1
8159 936 943 1
8160 936 1002 1
8161 936 1003 1
8162 936 1037 1
8163 936 1039 1
8164 936 1048 1
8165 936 1050 1
8166 937 944 1
8167 937 1004 1
8168 937 1042 1
8169 938 939 1
8170 938 945 1
8171 938 1004 1
8172 938 1005 1
8173 938 1042 1
8174 938 1043 1
8175 938 1044 1
8176 938 1053 1
8177 938 1054 1
8178 939 940 1
8179 939 945 1
8180 939 946 1
8181 939 1000 1
8182 939 1005 1
8183 939 1043 1
8184 939 1044 1
8185 939 1045 1
8186 939 1053 1
8187 939 1054 1
8188 939 1055 1
8189 922 940 1
8190 940 941 1
8191 940 945 1
8192 940 946 1
8193 940 1000 1
8194 940 1036 1
8195 940 1044 1
8196 940 1045 1
8197 940 1046 1
8198 940 1054 1
8199 940 1055 1
8200 940 1056 1
8201 922 941 1
8202 923 941 1
8203 941 942 1
8204 941 946 1
8205 941 1000 1
8206 941 1036 1
8207 941 1037 1
8208 941 1045 1
8209 941 1046 1
8210 941 1048 1
8211 941 1055 1
8212 941 1056 1
8213 941 1057 1
8214 922 942 1
8215 923 942 1
8216 924 942 1
8217 942 943 1
8218 942 1036 1
8219 942 1037 1
8220 942 1039 1
8221 942 1046 1
8222 942 1048 1
8223 942 1050 1
8224 942 1056 1
8225 942 1057 1
8226 923 943 1
8227 924 943 1
8228 943 1037 1
8229 943 1039 1
8230 943 1048 1
8231 943 1050 1
8232 943 1057 1
8233 925 945 1
8234 926 945 1
8235 927 945 1
8236 945 946 1
8237 945 1035 1
8238 945 1043 1
8239 945 1044 1
8240 945 1045 1
8241 945 1053 1
8242 945 1054 1
8243 945 1055 1
8244 922 946 1
8245 926 946 1
8246 927 946 1
8247 928 946 1
8248 946 1035 1
8249 946 1038 1
8250 946 1044 1
8251 946 1045 1
8252 946 1046 1
8253 946 1054 1
8254 946 1055 1
8255 946 1056 1
8256 947 998 1
8257 947 1015 1
8258 947 1017 1
8259 947 1019 1
8260 947 1081 1
8261 947 1083 1
8262 947 1085 1
8263 947 1099 1
8264 947 1101 1
8265 947 1103 1
8266 947 1113 1
8267 947 1115 1
8268 947 1117 1
8269 947 948 1
8270 948 949 1
8271 948 955 1
8272 948 956 1
8273 948 1079 1
8274 948 1081 1
8275 948 1083 1
8276 948 1094 1
8277 948 1096 1
8278 948 1098 1
8279 948 1111 1
8280 948 1113 1
8281 948 1115 1
8282 947 949 1
8283 949 950 1
8284 949 956 1
8285 949 998 1
8286 949 1081 1
8287 949 1083 1
8288 949 1085 1
8289 949 1096 1
8290 949 1098 1
8291 949 1100 1
8292 949 1113 1
8293 949 1115 1
8294 949 1117 1
8295 947 950 1
8296 950 951 1
8297 950 998 1
8298 950 999 1
8299 950 1083 1
8300 950 1085 1
8301 950 1087 1
8302 950 1098 1
8303 950 1100 1
8304 950 1102 1
8305 950 1115 1
8306 950 1117 1
8307 950 1119 1
8308 951 998 1
8309 951 999 1
8310 951 1085 1
8311 951 1087 1
8312 951 1100 1
8313 951 1102 1
8314 951 1117 1
8315 951 1119 1
8316 952 953 1
8317 952 1010 1
8318 952 1011 1
8319 952 1089 1
8320 952 1091 1
8321 952 1093 1
8322 952 1104 1
8323 952 1106 1
8324 952 1107 1
8325 952 1121 1
8326 952 1123 1
8327 952 1124 1
8328 953 954 1
8329 953 1010 1
8330 953 1011 1
8331 953 1012 1
8332 953 1077 1
8333 953 1091 1
8334 953 1093 1
8335 953 1095 1
8336 953 1106 1
8337 953 1107 1
8338 953 1109 1
8339 953 1123 1
8340 953 1124 1
8341 954 955 1
8342 954 1011 1
8343 954 1012 1
8344 954 1013 1
8345 954 1077 1
8346 954 1079 1
8347 954 1093 1
8348 954 1095 1
8349 954 1097 1
8350 954 1107 1
8351 954 1109 1
8352 954 1111 1
8353 954 1124 1
8354 955 956 1
8355 955 1012 1
8356 955 1013 1
8357 955 1015 1
8358 955 1077 1
8359 955 1079 1
8360 955 1081 1
8361 955 1095 1
8362 955 1097 1
8363 955 1099 1
8364 955 1109 1
8365 955 1111 1
8366 955 1113 1
8367 947 956 1
8368 956 1013 1
8369 956 1015 1
8370 956 1017 1
8371 956 1079 1
8372 956 1081 1
8373 956 1083 1
8374 956 1097 1
8375 956 1099 1
8376 956 1101 1
8377 956 1111 1
8378 956 1113 1
8379 956 1115 1
8380 957 959 1
8381 957 969 1
8382 957 971 1
8383 957 973 1
8384 957 1060 1
8385 957 1061 1
8386 957 1062 1
8387 957 1065 1
8388 957 1066 1
8389 957 1078 1
8390 957 1080 1
8391 957 1082 1
8392 958 970 1
8393 958 972 1
8394 958 1040 1
8395 958 1041 1
8396 958 1051 1
8397 958 1052 1
8398 958 1057 1
8399 959 960 1
8400 959 971 1
8401 959 973 1
8402 959 974 1
8403 959 1061 1
8404 959 1062 1
8405 959 1063 1
8406 959 1065 1
8407 959 1066 1
8408 959 1067 1
8409 959 1080 1
8410 959 1082 1
8411 959 1084 1
8412 960 973 1
8413 960 974 1
8414 960 1062 1
8415 960 1063 1
8416 960 1066 1
8417 960 1067 1
8418 960 1082 1
8419 960 1084 1
8420 961 962 1
8421 961 975 1
8422 961 1086 1
8423 961 1088 1
8424 962 963 1
8425 962 975 1
8426 962 977 1
8427 962 1086 1
8428 962 1088 1
8429 962 1090 1
8430 963 965 1
8431 963 977 1
8432 963 978 1
8433 963 1059 1
8434 963 1064 1
8435 963 1088 1
8436 963 1090 1
8437 963 1092 1
8438 964 966 1
8439 964 976 1
8440 964 979 1
8441 964 1035 1
8442 964 1047 1
8443 965 967 1
8444 965 977 1
8445 965 978 1
8446 965 980 1
8447 965 1058 1
8448 965 1059 1
8449 965 1064 1
8450 965 1090 1
8451 965 1092 1
8452 965 1094 1
8453 966 968 1
8454 966 979 1
8455 966 981 1
8456 966 1035 1
8457 966 1038 1
8458 966 1047 1
8459 966 1049 1
8460 966 1065 1
8461 967 969 1
8462 967 978 1
8463 967 980 1
8464 967 982 1
8465 967 1058 1
8466 967 1059 1
8467 967 1060 1
8468 967 1064 1
8469 967 1078 1
8470 967 1092 1
8471 967 1094 1
8472 967 1096 1
8473 968 970 1
8474 968 979 1
8475 968 981 1
8476 968 983 1
8477 968 1038 1
8478 968 1040 1
8479 968 1047 1
8480 968 1049 1
8481 968 1051 1
8482 968 1065 1
8483 968 1066 1
8484 969 971 1
8485 969 980 1
8486 969 982 1
8487 969 984 1
8488 969 1058 1
8489 969 1060 1
8490 969 1061 1
8491 969 1078 1
8492 969 1080 1
8493 969 1094 1
8494 969 1096 1
8495 969 1098 1
8496 970 972 1
8497 970 981 1
8498 970 983 1
8499 970 985 1
8500 970 1038 1
8501 970 1040 1
8502 970 1041 1
8503 970 1049 1
8504 970 1051 1
8505 970 1052 1
8506 970 1065 1
8507 970 1066 1
8508 970 1067 1
8509 971 973 1
8510 971 982 1
8511 971 984 1
8512 971 986 1
8513 971 1060 1
8514 971 1061 1
8515 971 1062 1
8516 971 1078 1
8517 971 1080 1
8518 971 1082 1
8519 971 1096 1
8520 971 1098 1
8521 971 1100 1
8522 972 983 1
8523 972 985 1
8524 972 1040 1
8525 972 1041 1
8526 972 1051 1
8527 972 1052 1
8528 972 1066 1
8529 972 1067 1
8530 973 974 1
8531 973 984 1
8532 973 986 1
8533 973 988 1
8534 973 1061 1
8535 973 1062 1
8536 973 1063 1
8537 973 1080 1
8538 973 1082 1
8539 973 1084 1
8540 973 1098 1
8541 973 1100 1
8542 973 1102 1
8543 974 986 1
8544 974 988 1
8545 974 1062 1
8546 974 1063 1
8547 974 1082 1
8548 974 1084 1
8549 974 1100 1
8550 974 1102 1
8551 975 989 1
8552 975 991 1
8553 975 1086 1
8554 975 1088 1
8555 975 1104 1
8556 975 1106 1
8557 976 990 1
8558 976 992 1
8559 976 994 1
8560 976 1059 1
8561 977 978 1
8562 977 991 1
8563 977 993 1
8564 977 995 1
8565 977 1064 1
8566 977 1088 1
8567 977 1090 1
8568 977 1092 1
8569 977 1106 1
8570 977 1107 1
8571 977 1109 1
8572 978 980 1
8573 978 993 1
8574 978 995 1
8575 978 997 1
8576 978 1058 1
8577 978 1064 1
8578 978 1090 1
8579 978 1092 1
8580 978 1094 1
8581 978 1107 1
8582 978 1109 1
8583 978 1111 1
8584 957 979 1
8585 979 981 1
8586 979 994 1
8587 979 996 1
8588 979 1047 1
8589 979 1049 1
8590 979 1060 1
8591 979 1061 1
8592 979 1065 1
8593 948 980 1
8594 980 982 1
8595 980 995 1
8596 980 997 1
8597 980 1058 1
8598 980 1064 1
8599 980 1078 1
8600 980 1092 1
8601 980 1094 1
8602 980 1096 1
8603 980 1109 1
8604 980 1111 1
8605 980 1113 1
8606 957 981 1
8607 959 981 1
8608 981 983 1
8609 981 996 1
8610 981 1047 1
8611 981 1049 1
8612 981 1051 1
8613 981 1060 1
8614 981 1061 1
8615 981 1062 1
8616 981 1065 1
8617 981 1066 1
8618 948 982 1
8619 949 982 1
8620 982 984 1
8621 982 997 1
8622 982 1058 1
8623 982 1078 1
8624 982 1080 1
8625 982 1094 1
8626 982 1096 1
8627 982 1098 1
8628 982 1111 1
8629 982 1113 1
8630 982 1115 1
8631 957 983 1
8632 959 983 1
8633 960 983 1
8634 983 985 1
8635 983 1049 1
8636 983 1051 1
8637 983 1052 1
8638 983 1061 1
8639 983 1062 1
8640 983 1063 1
8641 983 1065 1
8642 983 1066 1
8643 983 1067 1
8644 948 984 1
8645 949 984 1
8646 950 984 1
8647 984 986 1
8648 984 1078 1
8649 984 1080 1
8650 984 1082 1
8651 984 1096 1
8652 984 1098 1
8653 984 1100 1
8654 984 1113 1
8655 984 1115 1
8656 984 1117 1
8657 959 985 1
8658 960 985 1
8659 985 1051 1
8660 985 1052 1
8661 985 1062 1
8662 985 1063 1
8663 985 1066 1
8664 985 1067 1
8665 949 986 1
8666 950 986 1
8667 951 986 1
8668 986 988 1
8669 986 1080 1
8670 986 1082 1
8671 986 1084 1
8672 986 1098 1
8673 986 1100 1
8674 986 1102 1
8675 986 1115 1
8676 986 1117 1
8677 986 1119 1
8678 961 987 1
8679 962 987 1
8680 950 988 1
8681 951 988 1
8682 988 1082 1
8683 988 1084 1
8684 988 1100 1
8685 988 1102 1
8686 988 1117 1
8687 988 1119 1
8688 952 989 1
8689 989 991 1
8690 989 1086 1
8691 989 1088 1
8692 989 1104 1
8693 989 1106 1
8694 989 1121 1
8695 989 1123 1
8696 962 990 1
8697 963 990 1
8698 965 990 1
8699 990 992 1
8700 990 1059 1
8701 990 1064 1
8702 952 991 1
8703 953 991 1
8704 991 993 1
8705 991 1086 1
8706 991 1088 1
8707 991 1090 1
8708 991 1104 1
8709 991 1106 1
8710 991 1107 1
8711 991 1121 1
8712 991 1123 1
8713 991 1124 1
8714 963 992 1
8715 965 992 1
8716 967 992 1
8717 992 994 1
8718 992 1058 1
8719 992 1059 1
8720 992 1064 1
8721 952 993 1
8722 953 993 1
8723 954 993 1
8724 993 995 1
8725 993 1077 1
8726 993 1088 1
8727 993 1090 1
8728 993 1092 1
8729 993 1106 1
8730 993 1107 1
8731 993 1109 1
8732 993 1123 1
8733 993 1124 1
8734 965 994 1
8735 967 994 1
8736 969 994 1
8737 994 996 1
8738 994 1058 1
8739 994 1059 1
8740 994 1060 1
8741 994 1064 1
8742 994 1078 1
8743 953 995 1
8744 954 995 1
8745 955 995 1
8746 995 997 1
8747 995 1077 1
8748 995 1079 1
8749 995 1090 1
8750 995 1092 1
8751 995 1094 1
8752 995 1107 1
8753 995 1109 1
8754 995 1111 1
8755 995 1124 1
8756 957 996 1
8757 967 996 1
8758 969 996 1
8759 971 996 1
8760 996 1058 1
8761 996 1060 1
8762 996 1061 1
8763 996 1065 1
8764 996 1078 1
8765 996 1080 1
8766 948 997 1
8767 954 997 1
8768 955 997 1
8769 956 997 1
8770 997 1077 1
8771 997 1079 1
8772 997 1081 1
8773 997 1092 1
8774 997 1094 1
8775 997 1096 1
8776 997 1109 1
8777 997 1111 1
8778 997 1113 1
8779 998 999 1
8780 998 1017 1
8781 998 1019 1
8782 998 1021 1
8783 998 1083 1
8784 998 1085 1
8785 998 1087 1
8786 998 1101 1
8787 998 1103 1
8788 998 1105 1
8789 998 1115 1
8790 998 1117 1
8791 998 1119 1
8792 999 1019 1
8793 999 1021 1
8794 999 1085 1
8795 999 1087 1
8796 999 1103 1
8797 999 1105 1
8798 999 1117 1
8799 999 1119 1
8800 1000 1036 1
8801 1000 1044 1
8802 1000 1045 1
8803 1000 1046 1
8804 1000 1133 1
8805 1000 1134 1
8806 1000 1139 1
8807 1000 1140 1
8808 1000 1141 1
8809 1000 1001 1
8810 1001 1002 1
8811 1001 1036 1
8812 1001 1037 1
8813 1001 1130 1
8814 1001 1131 1
8815 1001 1133 1
8816 1001 1134 1
8817 1001 1135 1
8818 1001 1145 1
8819 1002 1003 1
8820 1002 1036 1
8821 1002 1037 1
8822 1002 1039 1
8823 1002 1130 1
8824 1002 1131 1
8825 1002 1132 1
8826 1002 1134 1
8827 1002 1135 1
8828 1002 1136 1
8829 1002 1145 1
8830 1002 1146 1
8831 1003 1037 1
8832 1003 1039 1
8833 1003 1131 1
8834 1003 1132 1
8835 1003 1135 1
8836 1003 1136 1
8837 1003 1145 1
8838 1003 1146 1
8839 1004 1005 1
8840 1004 1042 1
8841 1004 1043 1
8842 1004 1137 1
8843 1004 1138 1
8844 1005 1042 1
8845 1005 1043 1
8846 1005 1044 1
8847 1005 1137 1
8848 1005 1138 1
8849 1005 1139 1
8850 1006 1007 1
8851 1006 1016 1
8852 1006 1018 1
8853 1006 1020 1
8854 1006 1071 1
8855 1006 1072 1
8856 1006 1073 1
8857 1006 1114 1
8858 1006 1116 1
8859 1006 1118 1
8860 1006 1125 1
8861 1006 1126 1
8862 1006 1127 1
8863 1007 1008 1
8864 1007 1018 1
8865 1007 1020 1
8866 1007 1022 1
8867 1007 1072 1
8868 1007 1073 1
8869 1007 1074 1
8870 1007 1116 1
8871 1007 1118 1
8872 1007 1120 1
8873 1007 1126 1
8874 1007 1127 1
8875 1007 1128 1
8876 1008 1009 1
8877 1008 1020 1
8878 1008 1022 1
8879 1008 1023 1
8880 1008 1073 1
8881 1008 1074 1
8882 1008 1075 1
8883 1008 1118 1
8884 1008 1120 1
8885 1008 1122 1
8886 1008 1127 1
8887 1008 1128 1
8888 1008 1129 1
8889 1009 1022 1
8890 1009 1023 1
8891 1009 1074 1
8892 1009 1075 1
8893 1009 1120 1
8894 1009 1122 1
8895 1009 1128 1
8896 1009 1129 1
8897 1010 1011 1
8898 1010 1024 1
8899 1010 1089 1
8900 1010 1091 1
8901 1010 1093 1
8902 1010 1108 1
8903 1010 1110 1
8904 1010 1121 1
8905 1010 1123 1
8906 1010 1124 1
8907 1011 1012 1
8908 1011 1024 1
8909 1011 1025 1
8910 1011 1077 1
8911 1011 1091 1
8912 1011 1093 1
8913 1011 1095 1
8914 1011 1108 1
8915 1011 1110 1
8916 1011 1112 1
8917 1011 1123 1
8918 1011 1124 1
8919 1012 1013 1
8920 1012 1024 1
8921 1012 1025 1
8922 1012 1026 1
8923 1012 1077 1
8924 1012 1079 1
8925 1012 1093 1
8926 1012 1095 1
8927 1012 1097 1
8928 1012 1110 1
8929 1012 1112 1
8930 1012 1114 1
8931 1012 1124 1
8932 1013 1015 1
8933 1013 1025 1
8934 1013 1026 1
8935 1013 1027 1
8936 1013 1077 1
8937 1013 1079 1
8938 1013 1081 1
8939 1013 1095 1
8940 1013 1097 1
8941 1013 1099 1
8942 1013 1112 1
8943 1013 1114 1
8944 1013 1116 1
8945 1014 1016 1
8946 1014 1068 1
8947 1014 1069 1
8948 1014 1070 1
8949 1014 1071 1
8950 1014 1076 1
8951 1014 1125 1
8952 1015 1017 1
8953 1015 1026 1
8954 1015 1027 1
8955 1015 1028 1
8956 1015 1079 1
8957 1015 1081 1
8958 1015 1083 1
8959 1015 1097 1
8960 1015 1099 1
8961 1015 1101 1
8962 1015 1114 1
8963 1015 1116 1
8964 1015 1118 1
8965 1016 1018 1
8966 1016 1068 1
8967 1016 1070 1
8968 1016 1071 1
8969 1016 1072 1
8970 1016 1125 1
8971 1016 1126 1
8972 1017 1019 1
8973 1017 1027 1
8974 1017 1028 1
8975 1017 1029 1
8976 1017 1081 1
8977 1017 1083 1
8978 1017 1085 1
8979 1017 1099 1
8980 1017 1101 1
8981 1017 1103 1
8982 1017 1116 1
8983 1017 1118 1
8984 1017 1120 1
8985 1018 1020 1
8986 1018 1071 1
8987 1018 1072 1
8988 1018 1073 1
8989 1018 1125 1
8990 1018 1126 1
8991 1018 1127 1
8992 1019 1021 1
8993 1019 1028 1
8994 1019 1029 1
8995 1019 1030 1
8996 1019 1083 1
8997 1019 1085 1
8998 1019 1087 1
8999 1019 1101 1
9000 1019 1103 1
9001 1019 1105 1
9002 1019 1118 1
9003 1019 1120 1
9004 1019 1122 1
9005 1020 1022 1
9006 1020 1072 1
9007 1020 1073 1
9008 1020 1074 1
9009 1020 1126 1
9010 1020 1127 1
9011 1020 1128 1
9012 1021 1029 1
9013 1021 1030 1
9014 1021 1085 1
9015 1021 1087 1
9016 1021 1103 1
9017 1021 1105 1
9018 1021 1120 1
9019 1021 1122 1
9020 1022 1023 1
9021 1022 1073 1
9022 1022 1074 1
9023 1022 1075 1
9024 1022 1127 1
9025 1022 1128 1
9026 1022 1129 1
9027 1023 1074 1
9028 1023 1075 1
9029 1023 1128 1
9030 1023 1129 1
9031 1024 1025 1
9032 1024 1033 1
9033 1024 1069 1
9034 1024 1070 1
9035 1024 1091 1
9036 1024 1093 1
9037 1024 1095 1
9038 1024 1108 1
9039 1024 1110 1
9040 1024 1112 1
9041 1025 1026 1
9042 1025 1033 1
9043 1025 1034 1
9044 1025 1069 1
9045 1025 1070 1
9046 1025 1071 1
9047 1025 1093 1
9048 1025 1095 1
9049 1025 1097 1
9050 1025 1110 1
9051 1025 1112 1
9052 1025 1114 1
9053 1006 1026 1
9054 1026 1027 1
9055 1026 1033 1
9056 1026 1034 1
9057 1026 1070 1
9058 1026 1071 1
9059 1026 1072 1
9060 1026 1095 1
9061 1026 1097 1
9062 1026 1099 1
9063 1026 1112 1
9064 1026 1114 1
9065 1026 1116 1
9066 1006 1027 1
9067 1007 1027 1
9068 1027 1028 1
9069 1027 1034 1
9070 1027 1071 1
9071 1027 1072 1
9072 1027 1073 1
9073 1027 1097 1
9074 1027 1099 1
9075 1027 1101 1
9076 1027 1114 1
9077 1027 1116 1
9078 1027 1118 1
9079 1006 1028 1
9080 1007 1028 1
9081 1008 1028 1
9082 1028 1029 1
9083 1028 1072 1
9084 1028 1073 1
9085 1028 1074 1
9086 1028 1099 1
9087 1028 1101 1
9088 1028 1103 1
9089 1028 1116 1
9090 1028 1118 1
9091 1028 1120 1
9092 1007 1029 1
9093 1008 1029 1
9094 1009 1029 1
9095 1029 1030 1
9096 1029 1073 1
9097 1029 1074 1
9098 1029 1075 1
9099 1029 1101 1
9100 1029 1103 1
9101 1029 1105 1
9102 1029 1118 1
9103 1029 1120 1
9104 1029 1122 1
9105 1008 1030 1
9106 1009 1030 1
9107 1030 1074 1
9108 1030 1075 1
9109 1030 1103 1
9110 1030 1105 1
9111 1030 1120 1
9112 1030 1122 1
9113 1001 1031 1
9114 1002 1031 1
9115 1003 1031 1
9116 1031 1032 1
9117 1031 1130 1
9118 1031 1131 1
9119 1031 1132 1
9120 1031 1145 1
9121 1031 1146 1
9122 1002 1032 1
9123 1003 1032 1
9124 1032 1131 1
9125 1032 1132 1
9126 1032 1145 1
9127 1032 1146 1
9128 1014 1033 1
9129 1016 1033 1
9130 1033 1034 1
9131 1033 1068 1
9132 1033 1069 1
9133 1033 1070 1
9134 1033 1071 1
9135 1033 1076 1
9136 1033 1110 1
9137 1033 1112 1
9138 1033 1114 1
9139 1033 1125 1
9140 1006 1034 1
9141 1014 1034 1
9142 1016 1034 1
9143 1018 1034 1
9144 1034 1068 1
9145 1034 1070 1
9146 1034 1071 1
9147 1034 1072 1
9148 1034 1112 1
9149 1034 1114 1
9150 1034 1116 1
9151 1034 1125 1
9152 1034 1126 1
9153 1035 1047 1
9154 1035 1144 1
9155 1036 1037 1
9156 1036 1045 1
9157 1036 1046 1
9158 1036 1048 1
9159 1036 1133 1
9160 1036 1134 1
9161 1036 1135 1
9162 1036 1140 1
9163 1036 1141 1
9164 1036 1145 1
9165 1037 1039 1
9166 1037 1046 1
9167 1037 1048 1
9168 1037 1050 1
9169 1037 1134 1
9170 1037 1135 1
9171 1037 1136 1
9172 1037 1141 1
9173 1037 1145 1
9174 1037 1146 1
9175 1038 1040 1
9176 1038 1047 1
9177 1038 1049 1
9178 1038 1051 1
9179 1039 1048 1
9180 1039 1050 1
9181 1039 1135 1
9182 1039 1136 1
9183 1039 1145 1
9184 1039 1146 1
9185 1040 1041 1
9186 1040 1049 1
9187 1040 1051 1
9188 1040 1052 1
9189 1040 1153 1
9190 1041 1051 1
9191 1041 1052 1
9192 1041 1153 1
9193 1042 1043 1
9194 1042 1053 1
9195 1042 1137 1
9196 1042 1138 1
9197 1042 1143 1
9198 1042 1144 1
9199 1043 1044 1
9200 1043 1053 1
9201 1043 1054 1
9202 1043 1137 1
9203 1043 1138 1
9204 1043 1139 1
9205 1043 1143 1
9206 1043 1144 1
9207 1044 1045 1
9208 1044 1053 1
9209 1044 1054 1
9210 1044 1055 1
9211 1044 1133 1
9212 1044 1138 1
9213 1044 1139 1
9214 1044 1140 1
9215 1044 1144 1
9216 1045 1046 1
9217 1045 1054 1
9218 1045 1055 1
9219 1045 1056 1
9220 1045 1133 1
9221 1045 1134 1
9222 1045 1139 1
9223 1045 1140 1
9224 1045 1141 1
9225 1046 1048 1
9226 1046 1055 1
9227 1046 1056 1
9228 1046 1057 1
9229 1046 1133 1
9230 1046 1134 1
9231 1046 1135 1
9232 1046 1140 1
9233 1046 1141 1
9234 1047 1049 1
9235 1047 1065 1
9236 1047 1160 1
9237 1048 1050 1
9238 1048 1056 1
9239 1048 1057 1
9240 1048 1134 1
9241 1048 1135 1
9242 1048 1136 1
9243 1048 1141 1
9244 1049 1051 1
9245 1049 1065 1
9246 1049 1066 1
9247 1049 1160 1
9248 1049 1162 1
9249 1050 1057 1
9250 1050 1135 1
9251 1050 1136 1
9252 1051 1052 1
9253 1051 1065 1
9254 1051 1066 1
9255 1051 1067 1
9256 1051 1153 1
9257 1051 1160 1
9258 1051 1162 1
9259 1051 1164 1
9260 1052 1066 1
9261 1052 1067 1
9262 1052 1153 1
9263 1052 1162 1
9264 1052 1164 1
9265 1035 1053 1
9266 1053 1054 1
9267 1053 1137 1
9268 1053 1138 1
9269 1053 1139 1
9270 1053 1143 1
9271 1053 1144 1
9272 1035 1054 1
9273 1054 1055 1
9274 1054 1138 1
9275 1054 1139 1
9276 1054 1140 1
9277 1054 1144 1
9278 1035 1055 1
9279 1038 1055 1
9280 1055 1056 1
9281 1055 1139 1
9282 1055 1140 1
9283 1055 1141 1
9284 1038 1056 1
9285 1040 1056 1
9286 1056 1057 1
9287 1056 1140 1
9288 1056 1141 1
9289 1038 1057 1
9290 1040 1057 1
9291 1041 1057 1
9292 1057 1141 1
9293 1058 1078 1
9294 1058 1092 1
9295 1058 1094 1
9296 1058 1096 1
9297 1058 1149 1
9298 1058 1150 1
9299 1058 1151 1
9300 1058 1158 1
9301 1058 1159 1
9302 1058 1161 1
9303 1058 1170 1
9304 1058 1172 1
9305 1058 1059 1
9306 1059 1064 1
9307 1059 1149 1
9308 1059 1150 1
9309 1059 1170 1
9310 1058 1060 1
9311 1060 1061 1
9312 1060 1078 1
9313 1060 1080 1
9314 1060 1150 1
9315 1060 1151 1
9316 1060 1152 1
9317 1060 1160 1
9318 1060 1170 1
9319 1060 1172 1
9320 1060 1174 1
9321 1061 1062 1
9322 1061 1078 1
9323 1061 1080 1
9324 1061 1082 1
9325 1061 1151 1
9326 1061 1152 1
9327 1061 1154 1
9328 1061 1160 1
9329 1061 1162 1
9330 1061 1172 1
9331 1061 1174 1
9332 1061 1176 1
9333 1062 1063 1
9334 1062 1080 1
9335 1062 1082 1
9336 1062 1084 1
9337 1062 1152 1
9338 1062 1154 1
9339 1062 1155 1
9340 1062 1160 1
9341 1062 1162 1
9342 1062 1164 1
9343 1062 1174 1
9344 1062 1176 1
9345 1062 1178 1
9346 1063 1082 1
9347 1063 1084 1
9348 1063 1154 1
9349 1063 1155 1
9350 1063 1162 1
9351 1063 1164 1
9352 1063 1176 1
9353 1063 1178 1
9354 1058 1064 1
9355 1064 1090 1
9356 1064 1092 1
9357 1064 1094 1
9358 1064 1149 1
9359 1064 1150 1
9360 1064 1157 1
9361 1064 1158 1
9362 1064 1159 1
9363 1064 1170 1
9364 1060 1065 1
9365 1061 1065 1
9366 1062 1065 1
9367 1065 1066 1
9368 1065 1160 1
9369 1065 1162 1
9370 1065 1172 1
9371 1065 1174 1
9372 1065 1176 1
9373 1061 1066 1
9374 1062 1066 1
9375 1063 1066 1
9376 1066 1067 1
9377 1066 1153 1
9378 1066 1160 1
9379 1066 1162 1
9380 1066 1164 1
9381 1066 1174 1
9382 1066 1176 1
9383 1066 1178 1
9384 1062 1067 1
9385 1063 1067 1
9386 1067 1153 1
9387 1067 1162 1
9388 1067 1164 1
9389 1067 1176 1
9390 1067 1178 1
9391 1068 1125 1
9392 1068 1194 1
9393 1068 1196 1
9394 1068 1217 1
9395 1068 1218 1
9396 1068 1219 1
9397 1068 1069 1
9398 1069 1070 1
9399 1069 1076 1
9400 1069 1194 1
9401 1069 1205 1
9402 1069 1206 1
9403 1069 1208 1
9404 1069 1217 1
9405 1069 1218 1
9406 1068 1070 1
9407 1070 1071 1
9408 1070 1076 1
9409 1070 1125 1
9410 1070 1194 1
9411 1070 1196 1
9412 1070 1206 1
9413 1070 1208 1
9414 1070 1209 1
9415 1070 1217 1
9416 1070 1218 1
9417 1070 1219 1
9418 1068 1071 1
9419 1071 1072 1
9420 1071 1125 1
9421 1071 1126 1
9422 1071 1194 1
9423 1071 1196 1
9424 1071 1198 1
9425 1071 1208 1
9426 1071 1209 1
9427 1071 1210 1
9428 1071 1218 1
9429 1071 1219 1
9430 1071 1220 1
9431 1072 1073 1
9432 1072 1125 1
9433 1072 1126 1
9434 1072 1127 1
9435 1072 1196 1
9436 1072 1198 1
9437 1072 1200 1
9438 1072 1209 1
9439 1072 1210 1
9440 1072 1211 1
9441 1072 1219 1
9442 1072 1220 1
9443 1072 1221 1
9444 1073 1074 1
9445 1073 1126 1
9446 1073 1127 1
9447 1073 1128 1
9448 1073 1198 1
9449 1073 1200 1
9450 1073 1202 1
9451 1073 1210 1
9452 1073 1211 1
9453 1073 1212 1
9454 1073 1220 1
9455 1073 1221 1
9456 1073 1222 1
9457 1074 1075 1
9458 1074 1127 1
9459 1074 1128 1
9460 1074 1129 1
9461 1074 1200 1
9462 1074 1202 1
9463 1074 1204 1
9464 1074 1211 1
9465 1074 1212 1
9466 1074 1213 1
9467 1074 1221 1
9468 1074 1222 1
9469 1074 1223 1
9470 1075 1128 1
9471 1075 1129 1
9472 1075 1202 1
9473 1075 1204 1
9474 1075 1212 1
9475 1075 1213 1
9476 1075 1222 1
9477 1075 1223 1
9478 1068 1076 1
9479 1076 1194 1
9480 1076 1217 1
9481 1076 1218 1
9482 1077 1079 1
9483 1077 1093 1
9484 1077 1095 1
9485 1077 1097 1
9486 1077 1148 1
9487 1077 1169 1
9488 1077 1171 1
9489 1077 1173 1
9490 1077 1182 1
9491 1077 1183 1
9492 1077 1191 1
9493 1077 1192 1
9494 1077 1193 1
9495 1078 1080 1
9496 1078 1094 1
9497 1078 1096 1
9498 1078 1098 1
9499 1078 1150 1
9500 1078 1151 1
9501 1078 1152 1
9502 1078 1159 1
9503 1078 1161 1
9504 1078 1163 1
9505 1078 1170 1
9506 1078 1172 1
9507 1078 1174 1
9508 1079 1081 1
9509 1079 1095 1
9510 1079 1097 1
9511 1079 1099 1
9512 1079 1171 1
9513 1079 1173 1
9514 1079 1175 1
9515 1079 1182 1
9516 1079 1183 1
9517 1079 1184 1
9518 1079 1192 1
9519 1079 1193 1
9520 1079 1195 1
9521 1080 1082 1
9522 1080 1096 1
9523 1080 1098 1
9524 1080 1100 1
9525 1080 1151 1
9526 1080 1152 1
9527 1080 1154 1
9528 1080 1161 1
9529 1080 1163 1
9530 1080 1165 1
9531 1080 1172 1
9532 1080 1174 1
9533 1080 1176 1
9534 1081 1083 1
9535 1081 1097 1
9536 1081 1099 1
9537 1081 1101 1
9538 1081 1173 1
9539 1081 1175 1
9540 1081 1177 1
9541 1081 1183 1
9542 1081 1184 1
9543 1081 1185 1
9544 1081 1193 1
9545 1081 1195 1
9546 1081 1197 1
9547 1082 1084 1
9548 1082 1098 1
9549 1082 1100 1
9550 1082 1102 1
9551 1082 1152 1
9552 1082 1154 1
9553 1082 1155 1
9554 1082 1163 1
9555 1082 1165 1
9556 1082 1166 1
9557 1082 1174 1
9558 1082 1176 1
9559 1082 1178 1
9560 1083 1085 1
9561 1083 1099 1
9562 1083 1101 1
9563 1083 1103 1
9564 1083 1175 1
9565 1083 1177 1
9566 1083 1179 1
9567 1083 1184 1
9568 1083 1185 1
9569 1083 1186 1
9570 1083 1195 1
9571 1083 1197 1
9572 1083 1199 1
9573 1084 1100 1
9574 1084 1102 1
9575 1084 1154 1
9576 1084 1155 1
9577 1084 1165 1
9578 1084 1166 1
9579 1084 1176 1
9580 1084 1178 1
9581 1085 1087 1
9582 1085 1101 1
9583 1085 1103 1
9584 1085 1105 1
9585 1085 1177 1
9586 1085 1179 1
9587 1085 1180 1
9588 1085 1185 1
9589 1085 1186 1
9590 1085 1187 1
9591 1085 1197 1
9592 1085 1199 1
9593 1085 1201 1
9594 1086 1088 1
9595 1086 1104 1
9596 1086 1106 1
9597 1086 1156 1
9598 1086 1167 1
9599 1086 1168 1
9600 1087 1103 1
9601 1087 1105 1
9602 1087 1179 1
9603 1087 1180 1
9604 1087 1186 1
9605 1087 1187 1
9606 1087 1199 1
9607 1087 1201 1
9608 1088 1090 1
9609 1088 1104 1
9610 1088 1106 1
9611 1088 1107 1
9612 1088 1156 1
9613 1088 1157 1
9614 1088 1167 1
9615 1088 1168 1
9616 1088 1169 1
9617 1089 1091 1
9618 1089 1108 1
9619 1089 1147 1
9620 1089 1181 1
9621 1089 1188 1
9622 1089 1203 1
9623 1089 1205 1
9624 1090 1092 1
9625 1090 1106 1
9626 1090 1107 1
9627 1090 1109 1
9628 1090 1149 1
9629 1090 1157 1
9630 1090 1158 1
9631 1090 1168 1
9632 1090 1169 1
9633 1090 1171 1
9634 1091 1093 1
9635 1091 1108 1
9636 1091 1110 1
9637 1091 1147 1
9638 1091 1148 1
9639 1091 1181 1
9640 1091 1188 1
9641 1091 1191 1
9642 1091 1203 1
9643 1091 1205 1
9644 1091 1206 1
9645 1092 1094 1
9646 1092 1107 1
9647 1092 1109 1
9648 1092 1111 1
9649 1092 1149 1
9650 1092 1150 1
9651 1092 1157 1
9652 1092 1158 1
9653 1092 1159 1
9654 1092 1169 1
9655 1092 1171 1
9656 1092 1173 1
9657 1093 1095 1
9658 1093 1108 1
9659 1093 1110 1
9660 1093 1112 1
9661 1093 1147 1
9662 1093 1148 1
9663 1093 1181 1
9664 1093 1182 1
9665 1093 1191 1
9666 1093 1192 1
9667 1093 1205 1
9668 1093 1206 1
9669 1093 1208 1
9670 1094 1096 1
9671 1094 1109 1
9672 1094 1111 1
9673 1094 1113 1
9674 1094 1149 1
9675 1094 1150 1
9676 1094 1151 1
9677 1094 1158 1
9678 1094 1159 1
9679 1094 1161 1
9680 1094 1171 1
9681 1094 1173 1
9682 1094 1175 1
9683 1095 1097 1
9684 1095 1110 1
9685 1095 1112 1
9686 1095 1114 1
9687 1095 1148 1
9688 1095 1182 1
9689 1095 1183 1
9690 1095 1191 1
9691 1095 1192 1
9692 1095 1193 1
9693 1095 1206 1
9694 1095 1208 1
9695 1095 1209 1
9696 1096 1098 1
9697 1096 1111 1
9698 1096 1113 1
9699 1096 1115 1
9700 1096 1150 1
9701 1096 1151 1
9702 1096 1152 1
9703 1096 1159 1
9704 1096 1161 1
9705 1096 1163 1
9706 1096 1173 1
9707 1096 1175 1
9708 1096 1177 1
9709 1097 1099 1
9710 1097 1112 1
9711 1097 1114 1
9712 1097 1116 1
9713 1097 1182 1
9714 1097 1183 1
9715 1097 1184 1
9716 1097 1192 1
9717 1097 1193 1
9718 1097 1195 1
9719 1097 1208 1
9720 1097 1209 1
9721 1097 1210 1
9722 1098 1100 1
9723 1098 1113 1
9724 1098 1115 1
9725 1098 1117 1
9726 1098 1151 1
9727 1098 1152 1
9728 1098 1154 1
9729 1098 1161 1
9730 1098 1163 1
9731 1098 1165 1
9732 1098 1175 1
9733 1098 1177 1
9734 1098 1179 1
9735 1099 1101 1
9736 1099 1114 1
9737 1099 1116 1
9738 1099 1118 1
9739 1099 1183 1
9740 1099 1184 1
9741 1099 1185 1
9742 1099 1193 1
9743 1099 1195 1
9744 1099 1197 1
9745 1099 1209 1
9746 1099 1210 1
9747 1099 1211 1
9748 1100 1102 1
9749 1100 1115 1
9750 1100 1117 1
9751 1100 1119 1
9752 1100 1152 1
9753 1100 1154 1
9754 1100 1155 1
9755 1100 1163 1
9756 1100 1165 1
9757 1100 1166 1
9758 1100 1177 1
9759 1100 1179 1
9760 1100 1180 1
9761 1101 1103 1
9762 1101 1116 1
9763 1101 1118 1
9764 1101 1120 1
9765 1101 1184 1
9766 1101 1185 1
9767 1101 1186 1
9768 1101 1195 1
9769 1101 1197 1
9770 1101 1199 1
9771 1101 1210 1
9772 1101 1211 1
9773 1101 1212 1
9774 1102 1117 1
9775 1102 1119 1
9776 1102 1154 1
9777 1102 1155 1
9778 1102 1165 1
9779 1102 1166 1
9780 1102 1179 1
9781 1102 1180 1
9782 1103 1105 1
9783 1103 1118 1
9784 1103 1120 1
9785 1103 1122 1
9786 1103 1185 1
9787 1103 1186 1
9788 1103 1187 1
9789 1103 1197 1
9790 1103 1199 1
9791 1103 1201 1
9792 1103 1211 1
9793 1103 1212 1
9794 1103 1213 1
9795 1104 1106 1
9796 1104 1121 1
9797 1104 1123 1
9798 1104 1147 1
9799 1104 1156 1
9800 1104 1167 1
9801 1104 1168 1
9802 1105 1120 1
9803 1105 1122 1
9804 1105 1186 1
9805 1105 1187 1
9806 1105 1199 1
9807 1105 1201 1
9808 1105 1212 1
9809 1105 1213 1
9810 1106 1107 1
9811 1106 1121 1
9812 1106 1123 1
9813 1106 1124 1
9814 1106 1147 1
9815 1106 1148 1
9816 1106 1156 1
9817 1106 1157 1
9818 1106 1167 1
9819 1106 1168 1
9820 1106 1169 1
9821 1077 1107 1
9822 1107 1109 1
9823 1107 1123 1
9824 1107 1124 1
9825 1107 1147 1
9826 1107 1148 1
9827 1107 1157 1
9828 1107 1158 1
9829 1107 1168 1
9830 1107 1169 1
9831 1107 1171 1
9832 1107 1182 1
9833 1069 1108 1
9834 1108 1110 1
9835 1108 1181 1
9836 1108 1188 1
9837 1108 1191 1
9838 1108 1203 1
9839 1108 1205 1
9840 1108 1206 1
9841 1108 1215 1
9842 1108 1217 1
9843 1077 1109 1
9844 1079 1109 1
9845 1109 1111 1
9846 1109 1124 1
9847 1109 1148 1
9848 1109 1157 1
9849 1109 1158 1
9850 1109 1159 1
9851 1109 1169 1
9852 1109 1171 1
9853 1109 1173 1
9854 1109 1182 1
9855 1109 1183 1
9856 1069 1110 1
9857 1070 1110 1
9858 1110 1112 1
9859 1110 1181 1
9860 1110 1191 1
9861 1110 1192 1
9862 1110 1205 1
9863 1110 1206 1
9864 1110 1208 1
9865 1110 1217 1
9866 1110 1218 1
9867 1077 1111 1
9868 1079 1111 1
9869 1081 1111 1
9870 1111 1113 1
9871 1111 1158 1
9872 1111 1159 1
9873 1111 1161 1
9874 1111 1171 1
9875 1111 1173 1
9876 1111 1175 1
9877 1111 1182 1
9878 1111 1183 1
9879 1111 1184 1
9880 1069 1112 1
9881 1070 1112 1
9882 1071 1112 1
9883 1112 1114 1
9884 1112 1191 1
9885 1112 1192 1
9886 1112 1193 1
9887 1112 1206 1
9888 1112 1208 1
9889 1112 1209 1
9890 1112 1217 1
9891 1112 1218 1
9892 1112 1219 1
9893 1079 1113 1
9894 1081 1113 1
9895 1083 1113 1
9896 1113 1115 1
9897 1113 1159 1
9898 1113 1161 1
9899 1113 1163 1
9900 1113 1173 1
9901 1113 1175 1
9902 1113 1177 1
9903 1113 1183 1
9904 1113 1184 1
9905 1113 1185 1
9906 1070 1114 1
9907 1071 1114 1
9908 1072 1114 1
9909 1114 1116 1
9910 1114 1192 1
9911 1114 1193 1
9912 1114 1195 1
9913 1114 1208 1
9914 1114 1209 1
9915 1114 1210 1
9916 1114 1218 1
9917 1114 1219 1
9918 1114 1220 1
9919 1081 1115 1
9920 1083 1115 1
9921 1085 1115 1
9922 1115 1117 1
9923 1115 1161 1
9924 1115 1163 1
9925 1115 1165 1
9926 1115 1175 1
9927 1115 1177 1
9928 1115 1179 1
9929 1115 1184 1
9930 1115 1185 1
9931 1115 1186 1
9932 1071 1116 1
9933 1072 1116 1
9934 1073 1116 1
9935 1116 1118 1
9936 1116 1193 1
9937 1116 1195 1
9938 1116 1197 1
9939 1116 1209 1
9940 1116 1210 1
9941 1116 1211 1
9942 1116 1219 1
9943 1116 1220 1
9944 1116 1221 1
9945 1083 1117 1
9946 1085 1117 1
9947 1087 1117 1
9948 1117 1119 1
9949 1117 1163 1
9950 1117 1165 1
9951 1117 1166 1
9952 1117 1177 1
9953 1117 1179 1
9954 1117 1180 1
9955 1117 1185 1
9956 1117 1186 1
9957 1117 1187 1
9958 1072 1118 1
9959 1073 1118 1
9960 1074 1118 1
9961 1118 1120 1
9962 1118 1195 1
9963 1118 1197 1
9964 1118 1199 1
9965 1118 1210 1
9966 1118 1211 1
9967 1118 1212 1
9968 1118 1220 1
9969 1118 1221 1
9970 1118 1222 1
9971 1085 1119 1
9972 1087 1119 1
9973 1119 1165 1
9974 1119 1166 1
9975 1119 1179 1
9976 1119 1180 1
9977 1119 1186 1
9978 1119 1187 1
9979 1073 1120 1
9980 1074 1120 1
9981 1075 1120 1
9982 1120 1122 1
9983 1120 1197 1
9984 1120 1199 1
9985 1120 1201 1
9986 1120 1211 1
9987 1120 1212 1
9988 1120 1213 1
9989 1120 1221 1
9990 1120 1222 1
9991 1120 1223 1
9992 1089 1121 1
9993 1091 1121 1
9994 1121 1123 1
9995 1121 1147 1
9996 1121 1167 1
9997 1121 1168 1
9998 1121 1181 1
9999 1121 1188 1
10000 1074 1122 1
10001 1075 1122 1
10002 1122 1199 1
10003 1122 1201 1
10004 1122 1212 1
10005 1122 1213 1
10006 1122 1222 1
10007 1122 1223 1
10008 1089 1123 1
10009 1091 1123 1
10010 1093 1123 1
10011 1123 1124 1
10012 1123 1147 1
10013 1123 1148 1
10014 1123 1167 1
10015 1123 1168 1
10016 1123 1169 1
10017 1123 1181 1
10018 1123 1188 1
10019 1123 1191 1
10020 1077 1124 1
10021 1091 1124 1
10022 1093 1124 1
10023 1095 1124 1
10024 1124 1147 1
10025 1124 1148 1
10026 1124 1168 1
10027 1124 1169 1
10028 1124 1171 1
10029 1124 1181 1
10030 1124 1182 1
10031 1124 1191 1
10032 1124 1192 1
10033 1125 1126 1
10034 1125 1194 1
10035 1125 1196 1
10036 1125 1198 1
10037 1125 1218 1
10038 1125 1219 1
10039 1125 1220 1
10040 1126 1127 1
10041 1126 1196 1
10042 1126 1198 1
10043 1126 1200 1
10044 1126 1219 1
10045 1126 1220 1
10046 1126 1221 1
10047 1127 1128 1
10048 1127 1198 1
10049 1127 1200 1
10050 1127 1202 1
10051 1127 1220 1
10052 1127 1221 1
10053 1127 1222 1
10054 1128 1129 1
10055 1128 1200 1
10056 1128 1202 1
10057 1128 1204 1
10058 1128 1221 1
10059 1128 1222 1
10060 1128 1223 1
10061 1129 1202 1
10062 1129 1204 1
10063 1129 1222 1
10064 1129 1223 1
10065 1130 1131 1
10066 1130 1145 1
10067 1130 1214 1
10068 1131 1132 1
10069 1131 1145 1
10070 1131 1146 1
10071 1131 1189 1
10072 1131 1214 1
10073 1131 1216 1
10074 1132 1145 1
10075 1132 1146 1
10076 1132 1189 1
10077 1132 1214 1
10078 1132 1216 1
10079 1133 1134 1
10080 1133 1139 1
10081 1133 1140 1
10082 1133 1141 1
10083 1133 1224 1
10084 1133 1225 1
10085 1134 1135 1
10086 1134 1140 1
10087 1134 1141 1
10088 1134 1190 1
10089 1134 1225 1
10090 1135 1136 1
10091 1135 1141 1
10092 1135 1189 1
10093 1135 1190 1
10094 1135 1225 1
10095 1136 1189 1
10096 1136 1190 1
10097 1137 1138 1
10098 1137 1143 1
10099 1137 1144 1
10100 1137 1227 1
10101 1137 1228 1
10102 1138 1139 1
10103 1138 1143 1
10104 1138 1144 1
10105 1138 1224 1
10106 1138 1227 1
10107 1138 1228 1
10108 1139 1140 1
10109 1139 1144 1
10110 1139 1224 1
10111 1139 1228 1
10112 1140 1141 1
10113 1140 1224 1
10114 1140 1225 1
10115 1141 1190 1
10116 1141 1225 1
10117 1142 1226 1
10118 1142 1229 1
10119 1143 1144 1
10120 1143 1227 1
10121 1143 1228 1
10122 1143 1230 1
10123 1144 1224 1
10124 1144 1227 1
10125 1144 1228 1
10126 1144 1230 1
10127 1134 1145 1
10128 1135 1145 1
10129 1136 1145 1
10130 1145 1146 1
10131 1145 1189 1
10132 1145 1190 1
10133 1145 1214 1
10134 1145 1216 1
10135 1135 1146 1
10136 1136 1146 1
10137 1146 1189 1
10138 1146 1190 1
10139 1146 1214 1
10140 1146 1216 1
10141 1147 1148 1
10142 1147 1181 1
10143 1147 1188 1
10144 1147 1191 1
10145 1147 1255 1
10146 1147 1257 1
10147 1147 1259 1
10148 1147 1270 1
10149 1147 1272 1
10150 1147 1274 1
10151 1147 1288 1
10152 1147 1290 1
10153 1147 1292 1
10154 1148 1181 1
10155 1148 1182 1
10156 1148 1191 1
10157 1148 1192 1
10158 1148 1257 1
10159 1148 1259 1
10160 1148 1261 1
10161 1148 1272 1
10162 1148 1274 1
10163 1148 1276 1
10164 1148 1290 1
10165 1148 1292 1
10166 1148 1294 1
10167 1149 1150 1
10168 1149 1157 1
10169 1149 1158 1
10170 1149 1159 1
10171 1149 1234 1
10172 1149 1235 1
10173 1149 1240 1
10174 1149 1256 1
10175 1149 1258 1
10176 1149 1260 1
10177 1150 1151 1
10178 1150 1158 1
10179 1150 1159 1
10180 1150 1161 1
10181 1150 1234 1
10182 1150 1235 1
10183 1150 1236 1
10184 1150 1240 1
10185 1150 1258 1
10186 1150 1260 1
10187 1150 1262 1
10188 1151 1152 1
10189 1151 1159 1
10190 1151 1161 1
10191 1151 1163 1
10192 1151 1235 1
10193 1151 1236 1
10194 1151 1237 1
10195 1151 1241 1
10196 1151 1260 1
10197 1151 1262 1
10198 1151 1264 1
10199 1152 1154 1
10200 1152 1161 1
10201 1152 1163 1
10202 1152 1165 1
10203 1152 1232 1
10204 1152 1236 1
10205 1152 1237 1
10206 1152 1238 1
10207 1152 1241 1
10208 1152 1262 1
10209 1152 1264 1
10210 1152 1266 1
10211 1153 1162 1
10212 1153 1164 1
10213 1153 1239 1
10214 1154 1155 1
10215 1154 1163 1
10216 1154 1165 1
10217 1154 1166 1
10218 1154 1231 1
10219 1154 1232 1
10220 1154 1233 1
10221 1154 1237 1
10222 1154 1238 1
10223 1154 1241 1
10224 1154 1264 1
10225 1154 1266 1
10226 1154 1268 1
10227 1155 1165 1
10228 1155 1166 1
10229 1155 1231 1
10230 1155 1232 1
10231 1155 1233 1
10232 1155 1238 1
10233 1155 1266 1
10234 1155 1268 1
10235 1156 1167 1
10236 1156 1168 1
10237 1156 1254 1
10238 1156 1270 1
10239 1156 1272 1
10240 1157 1158 1
10241 1157 1168 1
10242 1157 1169 1
10243 1157 1171 1
10244 1157 1234 1
10245 1157 1254 1
10246 1157 1256 1
10247 1157 1258 1
10248 1157 1272 1
10249 1157 1274 1
10250 1157 1276 1
10251 1158 1159 1
10252 1158 1169 1
10253 1158 1171 1
10254 1158 1173 1
10255 1158 1234 1
10256 1158 1235 1
10257 1158 1256 1
10258 1158 1258 1
10259 1158 1260 1
10260 1158 1274 1
10261 1158 1276 1
10262 1158 1278 1
10263 1159 1161 1
10264 1159 1171 1
10265 1159 1173 1
10266 1159 1175 1
10267 1159 1234 1
10268 1159 1235 1
10269 1159 1236 1
10270 1159 1258 1
10271 1159 1260 1
10272 1159 1262 1
10273 1159 1276 1
10274 1159 1278 1
10275 1159 1280 1
10276 1160 1162 1
10277 1160 1172 1
10278 1160 1174 1
10279 1160 1176 1
10280 1160 1232 1
10281 1160 1241 1
10282 1161 1163 1
10283 1161 1173 1
10284 1161 1175 1
10285 1161 1177 1
10286 1161 1235 1
10287 1161 1236 1
10288 1161 1237 1
10289 1161 1260 1
10290 1161 1262 1
10291 1161 1264 1
10292 1161 1278 1
10293 1161 1280 1
10294 1161 1282 1
10295 1162 1164 1
10296 1162 1174 1
10297 1162 1176 1
10298 1162 1178 1
10299 1162 1232 1
10300 1162 1233 1
10301 1162 1239 1
10302 1162 1241 1
10303 1163 1165 1
10304 1163 1175 1
10305 1163 1177 1
10306 1163 1179 1
10307 1163 1236 1
10308 1163 1237 1
10309 1163 1238 1
10310 1163 1262 1
10311 1163 1264 1
10312 1163 1266 1
10313 1163 1280 1
10314 1163 1282 1
10315 1163 1284 1
10316 1164 1176 1
10317 1164 1178 1
10318 1164 1232 1
10319 1164 1233 1
10320 1164 1239 1
10321 1165 1166 1
10322 1165 1177 1
10323 1165 1179 1
10324 1165 1180 1
10325 1165 1231 1
10326 1165 1237 1
10327 1165 1238 1
10328 1165 1264 1
10329 1165 1266 1
10330 1165 1268 1
10331 1165 1282 1
10332 1165 1284 1
10333 1165 1286 1
10334 1166 1179 1
10335 1166 1180 1
10336 1166 1231 1
10337 1166 1238 1
10338 1166 1266 1
10339 1166 1268 1
10340 1166 1284 1
10341 1166 1286 1
10342 1147 1167 1
10343 1167 1168 1
10344 1167 1254 1
10345 1167 1270 1
10346 1167 1272 1
10347 1167 1288 1
10348 1167 1290 1
10349 1147 1168 1
10350 1148 1168 1
10351 1168 1169 1
10352 1168 1254 1
10353 1168 1256 1
10354 1168 1270 1
10355 1168 1272 1
10356 1168 1274 1
10357 1168 1288 1
10358 1168 1290 1
10359 1168 1292 1
10360 1147 1169 1
10361 1148 1169 1
10362 1169 1171 1
10363 1169 1182 1
10364 1169 1254 1
10365 1169 1256 1
10366 1169 1258 1
10367 1169 1272 1
10368 1169 1274 1
10369 1169 1276 1
10370 1169 1290 1
10371 1169 1292 1
10372 1169 1294 1
10373 1149 1170 1
10374 1150 1170 1
10375 1151 1170 1
10376 1170 1172 1
10377 1170 1234 1
10378 1170 1235 1
10379 1170 1236 1
10380 1170 1240 1
10381 1148 1171 1
10382 1171 1173 1
10383 1171 1182 1
10384 1171 1183 1
10385 1171 1256 1
10386 1171 1258 1
10387 1171 1260 1
10388 1171 1274 1
10389 1171 1276 1
10390 1171 1278 1
10391 1171 1292 1
10392 1171 1294 1
10393 1171 1296 1
10394 1150 1172 1
10395 1151 1172 1
10396 1152 1172 1
10397 1172 1174 1
10398 1172 1235 1
10399 1172 1236 1
10400 1172 1237 1
10401 1172 1241 1
10402 1173 1175 1
10403 1173 1182 1
10404 1173 1183 1
10405 1173 1184 1
10406 1173 1258 1
10407 1173 1260 1
10408 1173 1262 1
10409 1173 1276 1
10410 1173 1278 1
10411 1173 1280 1
10412 1173 1294 1
10413 1173 1296 1
10414 1173 1298 1
10415 1151 1174 1
10416 1152 1174 1
10417 1154 1174 1
10418 1174 1176 1
10419 1174 1232 1
10420 1174 1236 1
10421 1174 1237 1
10422 1174 1238 1
10423 1174 1241 1
10424 1175 1177 1
10425 1175 1183 1
10426 1175 1184 1
10427 1175 1185 1
10428 1175 1260 1
10429 1175 1262 1
10430 1175 1264 1
10431 1175 1278 1
10432 1175 1280 1
10433 1175 1282 1
10434 1175 1296 1
10435 1175 1298 1
10436 1175 1300 1
10437 1152 1176 1
10438 1154 1176 1
10439 1155 1176 1
10440 1176 1178 1
10441 1176 1231 1
10442 1176 1232 1
10443 1176 1233 1
10444 1176 1237 1
10445 1176 1238 1
10446 1176 1239 1
10447 1176 1241 1
10448 1177 1179 1
10449 1177 1184 1
10450 1177 1185 1
10451 1177 1186 1
10452 1177 1252 1
10453 1177 1262 1
10454 1177 1264 1
10455 1177 1266 1
10456 1177 1280 1
10457 1177 1282 1
10458 1177 1284 1
10459 1177 1298 1
10460 1177 1300 1
10461 1154 1178 1
10462 1155 1178 1
10463 1178 1231 1
10464 1178 1232 1
10465 1178 1233 1
10466 1178 1238 1
10467 1178 1239 1
10468 1179 1180 1
10469 1179 1185 1
10470 1179 1186 1
10471 1179 1187 1
10472 1179 1252 1
10473 1179 1253 1
10474 1179 1264 1
10475 1179 1266 1
10476 1179 1268 1
10477 1179 1282 1
10478 1179 1284 1
10479 1179 1286 1
10480 1179 1300 1
10481 1180 1186 1
10482 1180 1187 1
10483 1180 1252 1
10484 1180 1253 1
10485 1180 1266 1
10486 1180 1268 1
10487 1180 1284 1
10488 1180 1286 1
10489 1181 1191 1
10490 1181 1203 1
10491 1181 1205 1
10492 1181 1206 1
10493 1181 1255 1
10494 1181 1257 1
10495 1181 1259 1
10496 1181 1273 1
10497 1181 1275 1
10498 1181 1277 1
10499 1181 1288 1
10500 1181 1290 1
10501 1181 1292 1
10502 1182 1183 1
10503 1182 1191 1
10504 1182 1192 1
10505 1182 1193 1
10506 1182 1259 1
10507 1182 1261 1
10508 1182 1263 1
10509 1182 1274 1
10510 1182 1276 1
10511 1182 1278 1
10512 1182 1292 1
10513 1182 1294 1
10514 1182 1296 1
10515 1183 1184 1
10516 1183 1192 1
10517 1183 1193 1
10518 1183 1195 1
10519 1183 1261 1
10520 1183 1263 1
10521 1183 1265 1
10522 1183 1276 1
10523 1183 1278 1
10524 1183 1280 1
10525 1183 1294 1
10526 1183 1296 1
10527 1183 1298 1
10528 1184 1185 1
10529 1184 1193 1
10530 1184 1195 1
10531 1184 1197 1
10532 1184 1263 1
10533 1184 1265 1
10534 1184 1267 1
10535 1184 1278 1
10536 1184 1280 1
10537 1184 1282 1
10538 1184 1296 1
10539 1184 1298 1
10540 1184 1300 1
10541 1185 1186 1
10542 1185 1195 1
10543 1185 1197 1
10544 1185 1199 1
10545 1185 1252 1
10546 1185 1265 1
10547 1185 1267 1
10548 1185 1269 1
10549 1185 1280 1
10550 1185 1282 1
10551 1185 1284 1
10552 1185 1298 1
10553 1185 1300 1
10554 1186 1187 1
10555 1186 1197 1
10556 1186 1199 1
10557 1186 1201 1
10558 1186 1252 1
10559 1186 1253 1
10560 1186 1267 1
10561 1186 1269 1
10562 1186 1271 1
10563 1186 1282 1
10564 1186 1284 1
10565 1186 1286 1
10566 1186 1300 1
10567 1187 1199 1
10568 1187 1201 1
10569 1187 1252 1
10570 1187 1253 1
10571 1187 1269 1
10572 1187 1271 1
10573 1187 1284 1
10574 1187 1286 1
10575 1181 1188 1
10576 1188 1203 1
10577 1188 1205 1
10578 1188 1255 1
10579 1188 1257 1
10580 1188 1273 1
10581 1188 1275 1
10582 1188 1288 1
10583 1188 1290 1
10584 1189 1190 1
10585 1189 1307 1
10586 1189 1313 1
10587 1189 1314 1
10588 1189 1319 1
10589 1189 1320 1
10590 1190 1225 1
10591 1190 1307 1
10592 1190 1319 1
10593 1190 1320 1
10594 1191 1192 1
10595 1191 1205 1
10596 1191 1206 1
10597 1191 1208 1
10598 1191 1257 1
10599 1191 1259 1
10600 1191 1261 1
10601 1191 1275 1
10602 1191 1277 1
10603 1191 1279 1
10604 1191 1290 1
10605 1191 1292 1
10606 1191 1294 1
10607 1192 1193 1
10608 1192 1206 1
10609 1192 1208 1
10610 1192 1209 1
10611 1192 1259 1
10612 1192 1261 1
10613 1192 1263 1
10614 1192 1277 1
10615 1192 1279 1
10616 1192 1281 1
10617 1192 1292 1
10618 1192 1294 1
10619 1192 1296 1
10620 1193 1195 1
10621 1193 1208 1
10622 1193 1209 1
10623 1193 1210 1
10624 1193 1261 1
10625 1193 1263 1
10626 1193 1265 1
10627 1193 1279 1
10628 1193 1281 1
10629 1193 1283 1
10630 1193 1294 1
10631 1193 1296 1
10632 1193 1298 1
10633 1194 1196 1
10634 1194 1247 1
10635 1194 1248 1
10636 1194 1249 1
10637 1194 1295 1
10638 1194 1297 1
10639 1194 1299 1
10640 1195 1197 1
10641 1195 1209 1
10642 1195 1210 1
10643 1195 1211 1
10644 1195 1263 1
10645 1195 1265 1
10646 1195 1267 1
10647 1195 1281 1
10648 1195 1283 1
10649 1195 1285 1
10650 1195 1296 1
10651 1195 1298 1
10652 1195 1300 1
10653 1196 1198 1
10654 1196 1248 1
10655 1196 1249 1
10656 1196 1250 1
10657 1196 1297 1
10658 1196 1299 1
10659 1196 1301 1
10660 1197 1199 1
10661 1197 1210 1
10662 1197 1211 1
10663 1197 1212 1
10664 1197 1252 1
10665 1197 1265 1
10666 1197 1267 1
10667 1197 1269 1
10668 1197 1283 1
10669 1197 1285 1
10670 1197 1287 1
10671 1197 1298 1
10672 1197 1300 1
10673 1198 1200 1
10674 1198 1243 1
10675 1198 1249 1
10676 1198 1250 1
10677 1198 1251 1
10678 1198 1299 1
10679 1198 1301 1
10680 1199 1201 1
10681 1199 1211 1
10682 1199 1212 1
10683 1199 1213 1
10684 1199 1252 1
10685 1199 1253 1
10686 1199 1267 1
10687 1199 1269 1
10688 1199 1271 1
10689 1199 1285 1
10690 1199 1287 1
10691 1199 1289 1
10692 1199 1300 1
10693 1200 1202 1
10694 1200 1242 1
10695 1200 1243 1
10696 1200 1244 1
10697 1200 1250 1
10698 1200 1251 1
10699 1200 1301 1
10700 1201 1212 1
10701 1201 1213 1
10702 1201 1252 1
10703 1201 1253 1
10704 1201 1269 1
10705 1201 1271 1
10706 1201 1287 1
10707 1201 1289 1
10708 1202 1204 1
10709 1202 1242 1
10710 1202 1243 1
10711 1202 1244 1
10712 1202 1245 1
10713 1202 1251 1
10714 1202 1302 1
10715 1203 1205 1
10716 1203 1215 1
10717 1203 1255 1
10718 1203 1257 1
10719 1203 1273 1
10720 1203 1275 1
10721 1203 1291 1
10722 1203 1293 1
10723 1204 1242 1
10724 1204 1244 1
10725 1204 1245 1
10726 1204 1302 1
10727 1205 1206 1
10728 1205 1215 1
10729 1205 1217 1
10730 1205 1255 1
10731 1205 1257 1
10732 1205 1259 1
10733 1205 1273 1
10734 1205 1275 1
10735 1205 1277 1
10736 1205 1291 1
10737 1205 1293 1
10738 1205 1295 1
10739 1206 1208 1
10740 1206 1217 1
10741 1206 1218 1
10742 1206 1257 1
10743 1206 1259 1
10744 1206 1261 1
10745 1206 1275 1
10746 1206 1277 1
10747 1206 1279 1
10748 1206 1293 1
10749 1206 1295 1
10750 1206 1297 1
10751 1207 1303 1
10752 1207 1304 1
10753 1207 1315 1
10754 1207 1316 1
10755 1208 1209 1
10756 1208 1217 1
10757 1208 1218 1
10758 1208 1219 1
10759 1208 1259 1
10760 1208 1261 1
10761 1208 1263 1
10762 1208 1277 1
10763 1208 1279 1
10764 1208 1281 1
10765 1208 1295 1
10766 1208 1297 1
10767 1208 1299 1
10768 1209 1210 1
10769 1209 1218 1
10770 1209 1219 1
10771 1209 1220 1
10772 1209 1261 1
10773 1209 1263 1
10774 1209 1265 1
10775 1209 1279 1
10776 1209 1281 1
10777 1209 1283 1
10778 1209 1297 1
10779 1209 1299 1
10780 1209 1301 1
10781 1210 1211 1
10782 1210 1219 1
10783 1210 1220 1
10784 1210 1221 1
10785 1210 1243 1
10786 1210 1263 1
10787 1210 1265 1
10788 1210 1267 1
10789 1210 1281 1
10790 1210 1283 1
10791 1210 1285 1
10792 1210 1299 1
10793 1210 1301 1
10794 1211 1212 1
10795 1211 1220 1
10796 1211 1221 1
10797 1211 1222 1
10798 1211 1243 1
10799 1211 1244 1
10800 1211 1265 1
10801 1211 1267 1
10802 1211 1269 1
10803 1211 1283 1
10804 1211 1285 1
10805 1211 1287 1
10806 1211 1301 1
10807 1212 1213 1
10808 1212 1221 1
10809 1212 1222 1
10810 1212 1223 1
10811 1212 1243 1
10812 1212 1244 1
10813 1212 1245 1
10814 1212 1267 1
10815 1212 1269 1
10816 1212 1271 1
10817 1212 1285 1
10818 1212 1287 1
10819 1212 1289 1
10820 1213 1222 1
10821 1213 1223 1
10822 1213 1244 1
10823 1213 1245 1
10824 1213 1269 1
10825 1213 1271 1
10826 1213 1287 1
10827 1213 1289 1
10828 1189 1214 1
10829 1214 1216 1
10830 1214 1312 1
10831 1214 1313 1
10832 1214 1314 1
10833 1214 1319 1
10834 1214 1320 1
10835 1215 1246 1
10836 1215 1273 1
10837 1215 1275 1
10838 1215 1291 1
10839 1215 1293 1
10840 1189 1216 1
10841 1216 1313 1
10842 1216 1314 1
10843 1216 1319 1
10844 1216 1320 1
10845 1194 1217 1
10846 1217 1218 1
10847 1217 1247 1
10848 1217 1248 1
10849 1217 1275 1
10850 1217 1277 1
10851 1217 1279 1
10852 1217 1293 1
10853 1217 1295 1
10854 1217 1297 1
10855 1194 1218 1
10856 1196 1218 1
10857 1218 1219 1
10858 1218 1247 1
10859 1218 1248 1
10860 1218 1249 1
10861 1218 1277 1
10862 1218 1279 1
10863 1218 1281 1
10864 1218 1295 1
10865 1218 1297 1
10866 1218 1299 1
10867 1194 1219 1
10868 1196 1219 1
10869 1198 1219 1
10870 1219 1220 1
10871 1219 1248 1
10872 1219 1249 1
10873 1219 1250 1
10874 1219 1279 1
10875 1219 1281 1
10876 1219 1283 1
10877 1219 1297 1
10878 1219 1299 1
10879 1219 1301 1
10880 1196 1220 1
10881 1198 1220 1
10882 1200 1220 1
10883 1220 1221 1
10884 1220 1243 1
10885 1220 1249 1
10886 1220 1250 1
10887 1220 1251 1
10888 1220 1281 1
10889 1220 1283 1
10890 1220 1285 1
10891 1220 1299 1
10892 1220 1301 1
10893 1198 1221 1
10894 1200 1221 1
10895 1202 1221 1
10896 1221 1222 1
10897 1221 1242 1
10898 1221 1243 1
10899 1221 1244 1
10900 1221 1250 1
10901 1221 1251 1
10902 1221 1283 1
10903 1221 1285 1
10904 1221 1287 1
10905 1221 1301 1
10906 1200 1222 1
10907 1202 1222 1
10908 1204 1222 1
10909 1222 1223 1
10910 1222 1242 1
10911 1222 1243 1
10912 1222 1244 1
10913 1222 1245 1
10914 1222 1251 1
10915 1222 1285 1
10916 1222 1287 1
10917 1222 1289 1
10918 1222 1302 1
10919 1202 1223 1
10920 1204 1223 1
10921 1223 1242 1
10922 1223 1244 1
10923 1223 1245 1
10924 1223 1287 1
10925 1223 1289 1
10926 1223 1302 1
10927 1224 1228 1
10928 1224 1309 1
10929 1224 1311 1
10930 1224 1318 1
10931 1226 1229 1
10932 1226 1321 1
10933 1227 1228 1
10934 1227 1230 1
10935 1227 1308 1
10936 1227 1309 1
10937 1227 1317 1
10938 1227 1318 1
10939 1227 1321 1
10940 1227 1322 1
10941 1228 1230 1
10942 1228 1308 1
10943 1228 1309 1
10944 1228 1311 1
10945 1228 1317 1
10946 1228 1318 1
10947 1228 1322 1
10948 1229 1305 1
10949 1229 1321 1
10950 1230 1305 1
10951 1230 1306 1
10952 1230 1317 1
10953 1230 1318 1
10954 1230 1321 1
10955 1230 1322 1
10956 1231 1266 1
10957 1231 1268 1
10958 1231 1325 1
10959 1231 1326 1
10960 1231 1334 1
10961 1231 1335 1
10962 1231 1344 1
10963 1231 1345 1
10964 1231 1232 1
10965 1232 1233 1
10966 1232 1237 1
10967 1232 1238 1
10968 1232 1324 1
10969 1232 1325 1
10970 1232 1326 1
10971 1232 1330 1
10972 1232 1333 1
10973 1232 1342 1
10974 1232 1344 1
10975 1232 1345 1
10976 1231 1233 1
10977 1233 1238 1
10978 1233 1325 1
10979 1233 1326 1
10980 1233 1333 1
10981 1233 1344 1
10982 1233 1345 1
10983 1234 1235 1
10984 1234 1256 1
10985 1234 1258 1
10986 1234 1260 1
10987 1234 1328 1
10988 1234 1329 1
10989 1234 1346 1
10990 1234 1347 1
10991 1235 1236 1
10992 1235 1258 1
10993 1235 1260 1
10994 1235 1262 1
10995 1235 1323 1
10996 1235 1328 1
10997 1235 1329 1
10998 1235 1331 1
10999 1235 1340 1
11000 1235 1346 1
11001 1235 1347 1
11002 1236 1237 1
11003 1236 1260 1
11004 1236 1262 1
11005 1236 1264 1
11006 1236 1323 1
11007 1236 1324 1
11008 1236 1329 1
11009 1236 1331 1
11010 1236 1332 1
11011 1236 1340 1
11012 1236 1342 1
11013 1236 1347 1
11014 1237 1238 1
11015 1237 1262 1
11016 1237 1264 1
11017 1237 1266 1
11018 1237 1323 1
11019 1237 1324 1
11020 1237 1325 1
11021 1237 1331 1
11022 1237 1332 1
11023 1237 1334 1
11024 1237 1340 1
11025 1237 1342 1
11026 1237 1344 1
11027 1231 1238 1
11028 1238 1264 1
11029 1238 1266 1
11030 1238 1268 1
11031 1238 1324 1
11032 1238 1325 1
11033 1238 1326 1
11034 1238 1332 1
11035 1238 1334 1
11036 1238 1335 1
11037 1238 1342 1
11038 1238 1344 1
11039 1238 1345 1
11040 1232 1239 1
11041 1233 1239 1
11042 1239 1333 1
11043 1239 1344 1
11044 1239 1345 1
11045 1234 1240 1
11046 1235 1240 1
11047 1240 1346 1
11048 1240 1347 1
11049 1232 1241 1
11050 1236 1241 1
11051 1237 1241 1
11052 1238 1241 1
11053 1241 1323 1
11054 1241 1324 1
11055 1241 1325 1
11056 1241 1330 1
11057 1241 1340 1
11058 1241 1342 1
11059 1241 1344 1
11060 1242 1302 1
11061 1242 1375 1
11062 1242 1377 1
11063 1242 1405 1
11064 1242 1407 1
11065 1242 1243 1
11066 1243 1244 1
11067 1243 1250 1
11068 1243 1251 1
11069 1243 1373 1
11070 1243 1375 1
11071 1243 1377 1
11072 1243 1387 1
11073 1243 1389 1
11074 1243 1391 1
11075 1243 1403 1
11076 1243 1405 1
11077 1243 1407 1
11078 1242 1244 1
11079 1244 1245 1
11080 1244 1251 1
11081 1244 1302 1
11082 1244 1375 1
11083 1244 1377 1
11084 1244 1389 1
11085 1244 1391 1
11086 1244 1393 1
11087 1244 1405 1
11088 1244 1407 1
11089 1242 1245 1
11090 1245 1302 1
11091 1245 1377 1
11092 1245 1391 1
11093 1245 1393 1
11094 1245 1407 1
11095 1246 1395 1
11096 1246 1397 1
11097 1246 1410 1
11098 1246 1412 1
11099 1247 1248 1
11100 1247 1397 1
11101 1247 1398 1
11102 1247 1400 1
11103 1247 1412 1
11104 1247 1413 1
11105 1247 1414 1
11106 1248 1249 1
11107 1248 1371 1
11108 1248 1398 1
11109 1248 1400 1
11110 1248 1402 1
11111 1248 1413 1
11112 1248 1414 1
11113 1249 1250 1
11114 1249 1371 1
11115 1249 1373 1
11116 1249 1400 1
11117 1249 1402 1
11118 1249 1403 1
11119 1249 1414 1
11120 1250 1251 1
11121 1250 1371 1
11122 1250 1373 1
11123 1250 1375 1
11124 1250 1402 1
11125 1250 1403 1
11126 1250 1405 1
11127 1242 1251 1
11128 1251 1373 1
11129 1251 1375 1
11130 1251 1377 1
11131 1251 1403 1
11132 1251 1405 1
11133 1251 1407 1
11134 1252 1253 1
11135 1252 1267 1
11136 1252 1269 1
11137 1252 1271 1
11138 1252 1351 1
11139 1252 1352 1
11140 1252 1353 1
11141 1252 1357 1
11142 1252 1358 1
11143 1252 1359 1
11144 1252 1372 1
11145 1252 1374 1
11146 1252 1376 1
11147 1253 1269 1
11148 1253 1271 1
11149 1253 1352 1
11150 1253 1353 1
11151 1253 1358 1
11152 1253 1359 1
11153 1253 1374 1
11154 1253 1376 1
11155 1254 1256 1
11156 1254 1270 1
11157 1254 1272 1
11158 1254 1274 1
11159 1254 1336 1
11160 1254 1337 1
11161 1254 1338 1
11162 1255 1257 1
11163 1255 1273 1
11164 1255 1275 1
11165 1255 1354 1
11166 1255 1360 1
11167 1255 1361 1
11168 1255 1378 1
11169 1255 1379 1
11170 1256 1258 1
11171 1256 1272 1
11172 1256 1274 1
11173 1256 1276 1
11174 1256 1328 1
11175 1256 1337 1
11176 1256 1338 1
11177 1256 1339 1
11178 1256 1346 1
11179 1257 1259 1
11180 1257 1273 1
11181 1257 1275 1
11182 1257 1277 1
11183 1257 1354 1
11184 1257 1360 1
11185 1257 1361 1
11186 1257 1362 1
11187 1257 1378 1
11188 1257 1379 1
11189 1257 1381 1
11190 1258 1260 1
11191 1258 1274 1
11192 1258 1276 1
11193 1258 1278 1
11194 1258 1328 1
11195 1258 1329 1
11196 1258 1338 1
11197 1258 1339 1
11198 1258 1341 1
11199 1258 1346 1
11200 1258 1347 1
11201 1259 1261 1
11202 1259 1275 1
11203 1259 1277 1
11204 1259 1279 1
11205 1259 1355 1
11206 1259 1361 1
11207 1259 1362 1
11208 1259 1363 1
11209 1259 1379 1
11210 1259 1381 1
11211 1259 1383 1
11212 1260 1262 1
11213 1260 1276 1
11214 1260 1278 1
11215 1260 1280 1
11216 1260 1323 1
11217 1260 1328 1
11218 1260 1329 1
11219 1260 1331 1
11220 1260 1339 1
11221 1260 1341 1
11222 1260 1343 1
11223 1260 1346 1
11224 1260 1347 1
11225 1261 1263 1
11226 1261 1277 1
11227 1261 1279 1
11228 1261 1281 1
11229 1261 1349 1
11230 1261 1355 1
11231 1261 1356 1
11232 1261 1362 1
11233 1261 1363 1
11234 1261 1381 1
11235 1261 1383 1
11236 1261 1385 1
11237 1262 1264 1
11238 1262 1278 1
11239 1262 1280 1
11240 1262 1282 1
11241 1262 1323 1
11242 1262 1324 1
11243 1262 1329 1
11244 1262 1331 1
11245 1262 1332 1
11246 1262 1341 1
11247 1262 1343 1
11248 1262 1347 1
11249 1262 1357 1
11250 1263 1265 1
11251 1263 1279 1
11252 1263 1281 1
11253 1263 1283 1
11254 1263 1348 1
11255 1263 1349 1
11256 1263 1350 1
11257 1263 1355 1
11258 1263 1356 1
11259 1263 1363 1
11260 1263 1383 1
11261 1263 1385 1
11262 1263 1387 1
11263 1264 1266 1
11264 1264 1280 1
11265 1264 1282 1
11266 1264 1284 1
11267 1264 1323 1
11268 1264 1324 1
11269 1264 1325 1
11270 1264 1331 1
11271 1264 1332 1
11272 1264 1334 1
11273 1264 1343 1
11274 1264 1357 1
11275 1264 1358 1
11276 1265 1267 1
11277 1265 1281 1
11278 1265 1283 1
11279 1265 1285 1
11280 1265 1348 1
11281 1265 1349 1
11282 1265 1350 1
11283 1265 1351 1
11284 1265 1356 1
11285 1265 1372 1
11286 1265 1385 1
11287 1265 1387 1
11288 1265 1389 1
11289 1266 1268 1
11290 1266 1282 1
11291 1266 1284 1
11292 1266 1286 1
11293 1266 1324 1
11294 1266 1325 1
11295 1266 1326 1
11296 1266 1332 1
11297 1266 1334 1
11298 1266 1335 1
11299 1266 1357 1
11300 1266 1358 1
11301 1266 1359 1
11302 1267 1269 1
11303 1267 1283 1
11304 1267 1285 1
11305 1267 1287 1
11306 1267 1348 1
11307 1267 1350 1
11308 1267 1351 1
11309 1267 1352 1
11310 1267 1372 1
11311 1267 1374 1
11312 1267 1387 1
11313 1267 1389 1
11314 1267 1391 1
11315 1268 1284 1
11316 1268 1286 1
11317 1268 1325 1
11318 1268 1326 1
11319 1268 1334 1
11320 1268 1335 1
11321 1268 1358 1
11322 1268 1359 1
11323 1269 1271 1
11324 1269 1285 1
11325 1269 1287 1
11326 1269 1289 1
11327 1269 1351 1
11328 1269 1352 1
11329 1269 1353 1
11330 1269 1372 1
11331 1269 1374 1
11332 1269 1376 1
11333 1269 1389 1
11334 1269 1391 1
11335 1269 1393 1
11336 1270 1272 1
11337 1270 1288 1
11338 1270 1290 1
11339 1270 1336 1
11340 1270 1337 1
11341 1270 1360 1
11342 1270 1361 1
11343 1271 1287 1
11344 1271 1289 1
11345 1271 1352 1
11346 1271 1353 1
11347 1271 1374 1
11348 1271 1376 1
11349 1271 1391 1
11350 1271 1393 1
11351 1272 1274 1
11352 1272 1288 1
11353 1272 1290 1
11354 1272 1292 1
11355 1272 1336 1
11356 1272 1337 1
11357 1272 1338 1
11358 1272 1360 1
11359 1272 1361 1
11360 1272 1362 1
11361 1273 1275 1
11362 1273 1291 1
11363 1273 1293 1
11364 1273 1354 1
11365 1273 1378 1
11366 1273 1379 1
11367 1273 1395 1
11368 1273 1397 1
11369 1274 1276 1
11370 1274 1290 1
11371 1274 1292 1
11372 1274 1294 1
11373 1274 1328 1
11374 1274 1337 1
11375 1274 1338 1
11376 1274 1339 1
11377 1274 1361 1
11378 1274 1362 1
11379 1274 1363 1
11380 1275 1277 1
11381 1275 1291 1
11382 1275 1293 1
11383 1275 1295 1
11384 1275 1354 1
11385 1275 1378 1
11386 1275 1379 1
11387 1275 1381 1
11388 1275 1395 1
11389 1275 1397 1
11390 1275 1398 1
11391 1276 1278 1
11392 1276 1292 1
11393 1276 1294 1
11394 1276 1296 1
11395 1276 1328 1
11396 1276 1329 1
11397 1276 1338 1
11398 1276 1339 1
11399 1276 1341 1
11400 1276 1349 1
11401 1276 1362 1
11402 1276 1363 1
11403 1277 1279 1
11404 1277 1293 1
11405 1277 1295 1
11406 1277 1297 1
11407 1277 1355 1
11408 1277 1379 1
11409 1277 1381 1
11410 1277 1383 1
11411 1277 1397 1
11412 1277 1398 1
11413 1277 1400 1
11414 1278 1280 1
11415 1278 1294 1
11416 1278 1296 1
11417 1278 1298 1
11418 1278 1328 1
11419 1278 1329 1
11420 1278 1331 1
11421 1278 1339 1
11422 1278 1341 1
11423 1278 1343 1
11424 1278 1349 1
11425 1278 1350 1
11426 1278 1363 1
11427 1279 1281 1
11428 1279 1295 1
11429 1279 1297 1
11430 1279 1299 1
11431 1279 1355 1
11432 1279 1356 1
11433 1279 1381 1
11434 1279 1383 1
11435 1279 1385 1
11436 1279 1398 1
11437 1279 1400 1
11438 1279 1402 1
11439 1280 1282 1
11440 1280 1296 1
11441 1280 1298 1
11442 1280 1300 1
11443 1280 1329 1
11444 1280 1331 1
11445 1280 1332 1
11446 1280 1341 1
11447 1280 1343 1
11448 1280 1349 1
11449 1280 1350 1
11450 1280 1351 1
11451 1280 1357 1
11452 1281 1283 1
11453 1281 1297 1
11454 1281 1299 1
11455 1281 1301 1
11456 1281 1348 1
11457 1281 1355 1
11458 1281 1356 1
11459 1281 1383 1
11460 1281 1385 1
11461 1281 1387 1
11462 1281 1400 1
11463 1281 1402 1
11464 1281 1403 1
11465 1252 1282 1
11466 1282 1284 1
11467 1282 1298 1
11468 1282 1300 1
11469 1282 1331 1
11470 1282 1332 1
11471 1282 1334 1
11472 1282 1343 1
11473 1282 1350 1
11474 1282 1351 1
11475 1282 1352 1
11476 1282 1357 1
11477 1282 1358 1
11478 1243 1283 1
11479 1283 1285 1
11480 1283 1299 1
11481 1283 1301 1
11482 1283 1348 1
11483 1283 1356 1
11484 1283 1372 1
11485 1283 1385 1
11486 1283 1387 1
11487 1283 1389 1
11488 1283 1402 1
11489 1283 1403 1
11490 1283 1405 1
11491 1252 1284 1
11492 1253 1284 1
11493 1284 1286 1
11494 1284 1300 1
11495 1284 1332 1
11496 1284 1334 1
11497 1284 1335 1
11498 1284 1351 1
11499 1284 1352 1
11500 1284 1353 1
11501 1284 1357 1
11502 1284 1358 1
11503 1284 1359 1
11504 1243 1285 1
11505 1244 1285 1
11506 1285 1287 1
11507 1285 1301 1
11508 1285 1348 1
11509 1285 1372 1
11510 1285 1374 1
11511 1285 1387 1
11512 1285 1389 1
11513 1285 1391 1
11514 1285 1403 1
11515 1285 1405 1
11516 1285 1407 1
11517 1252 1286 1
11518 1253 1286 1
11519 1286 1334 1
11520 1286 1335 1
11521 1286 1352 1
11522 1286 1353 1
11523 1286 1358 1
11524 1286 1359 1
11525 1243 1287 1
11526 1244 1287 1
11527 1245 1287 1
11528 1287 1289 1
11529 1287 1372 1
11530 1287 1374 1
11531 1287 1376 1
11532 1287 1389 1
11533 1287 1391 1
11534 1287 1393 1
11535 1287 1405 1
11536 1287 1407 1
11537 1255 1288 1
11538 1257 1288 1
11539 1288 1290 1
11540 1288 1336 1
11541 1288 1337 1
11542 1288 1354 1
11543 1288 1360 1
11544 1288 1361 1
11545 1244 1289 1
11546 1245 1289 1
11547 1289 1374 1
11548 1289 1376 1
11549 1289 1391 1
11550 1289 1393 1
11551 1289 1407 1
11552 1255 1290 1
11553 1257 1290 1
11554 1259 1290 1
11555 1290 1292 1
11556 1290 1336 1
11557 1290 1337 1
11558 1290 1338 1
11559 1290 1354 1
11560 1290 1360 1
11561 1290 1361 1
11562 1290 1362 1
11563 1246 1291 1
11564 1291 1293 1
11565 1291 1378 1
11566 1291 1379 1
11567 1291 1395 1
11568 1291 1397 1
11569 1291 1410 1
11570 1291 1412 1
11571 1257 1292 1
11572 1259 1292 1
11573 1261 1292 1
11574 1292 1294 1
11575 1292 1337 1
11576 1292 1338 1
11577 1292 1339 1
11578 1292 1355 1
11579 1292 1361 1
11580 1292 1362 1
11581 1292 1363 1
11582 1246 1293 1
11583 1247 1293 1
11584 1293 1295 1
11585 1293 1378 1
11586 1293 1379 1
11587 1293 1381 1
11588 1293 1395 1
11589 1293 1397 1
11590 1293 1398 1
11591 1293 1410 1
11592 1293 1412 1
11593 1293 1413 1
11594 1259 1294 1
11595 1261 1294 1
11596 1263 1294 1
11597 1294 1296 1
11598 1294 1338 1
11599 1294 1339 1
11600 1294 1341 1
11601 1294 1349 1
11602 1294 1355 1
11603 1294 1356 1
11604 1294 1362 1
11605 1294 1363 1
11606 1247 1295 1
11607 1248 1295 1
11608 1295 1297 1
11609 1295 1379 1
11610 1295 1381 1
11611 1295 1383 1
11612 1295 1397 1
11613 1295 1398 1
11614 1295 1400 1
11615 1295 1412 1
11616 1295 1413 1
11617 1295 1414 1
11618 1261 1296 1
11619 1263 1296 1
11620 1265 1296 1
11621 1296 1298 1
11622 1296 1339 1
11623 1296 1341 1
11624 1296 1343 1
11625 1296 1348 1
11626 1296 1349 1
11627 1296 1350 1
11628 1296 1355 1
11629 1296 1356 1
11630 1296 1363 1
11631 1247 1297 1
11632 1248 1297 1
11633 1249 1297 1
11634 1297 1299 1
11635 1297 1371 1
11636 1297 1381 1
11637 1297 1383 1
11638 1297 1385 1
11639 1297 1398 1
11640 1297 1400 1
11641 1297 1402 1
11642 1297 1413 1
11643 1297 1414 1
11644 1263 1298 1
11645 1265 1298 1
11646 1267 1298 1
11647 1298 1300 1
11648 1298 1341 1
11649 1298 1343 1
11650 1298 1348 1
11651 1298 1349 1
11652 1298 1350 1
11653 1298 1351 1
11654 1298 1356 1
11655 1298 1357 1
11656 1298 1372 1
11657 1248 1299 1
11658 1249 1299 1
11659 1250 1299 1
11660 1299 1301 1
11661 1299 1371 1
11662 1299 1373 1
11663 1299 1383 1
11664 1299 1385 1
11665 1299 1387 1
11666 1299 1400 1
11667 1299 1402 1
11668 1299 1403 1
11669 1299 1414 1
11670 1252 1300 1
11671 1265 1300 1
11672 1267 1300 1
11673 1269 1300 1
11674 1300 1343 1
11675 1300 1348 1
11676 1300 1350 1
11677 1300 1351 1
11678 1300 1352 1
11679 1300 1357 1
11680 1300 1358 1
11681 1300 1372 1
11682 1300 1374 1
11683 1243 1301 1
11684 1249 1301 1
11685 1250 1301 1
11686 1251 1301 1
11687 1301 1371 1
11688 1301 1373 1
11689 1301 1375 1
11690 1301 1385 1
11691 1301 1387 1
11692 1301 1389 1
11693 1301 1402 1
11694 1301 1403 1
11695 1301 1405 1
11696 1302 1377 1
11697 1302 1407 1
11698 1303 1304 1
11699 1303 1315 1
11700 1303 1316 1
11701 1303 1380 1
11702 1303 1382 1
11703 1303 1399 1
11704 1304 1315 1
11705 1304 1316 1
11706 1304 1380 1
11707 1304 1382 1
11708 1304 1384 1
11709 1304 1399 1
11710 1304 1401 1
11711 1305 1306 1
11712 1305 1327 1
11713 1305 1422 1
11714 1305 1429 1
11715 1305 1438 1
11716 1306 1327 1
11717 1306 1422 1
11718 1306 1423 1
11719 1306 1429 1
11720 1306 1430 1
11721 1306 1438 1
11722 1307 1368 1
11723 1307 1369 1
11724 1307 1409 1
11725 1307 1411 1
11726 1307 1418 1
11727 1308 1309 1
11728 1308 1317 1
11729 1308 1318 1
11730 1308 1365 1
11731 1308 1370 1
11732 1308 1415 1
11733 1308 1419 1
11734 1308 1420 1
11735 1309 1311 1
11736 1309 1317 1
11737 1309 1318 1
11738 1309 1364 1
11739 1309 1365 1
11740 1309 1366 1
11741 1309 1370 1
11742 1309 1415 1
11743 1309 1419 1
11744 1309 1420 1
11745 1309 1421 1
11746 1310 1312 1
11747 1310 1388 1
11748 1310 1390 1
11749 1310 1392 1
11750 1310 1404 1
11751 1310 1406 1
11752 1310 1408 1
11753 1311 1318 1
11754 1311 1364 1
11755 1311 1365 1
11756 1311 1366 1
11757 1311 1370 1
11758 1311 1416 1
11759 1311 1420 1
11760 1311 1421 1
11761 1312 1313 1
11762 1312 1319 1
11763 1312 1390 1
11764 1312 1392 1
11765 1312 1394 1
11766 1312 1406 1
11767 1312 1408 1
11768 1312 1409 1
11769 1313 1314 1
11770 1313 1319 1
11771 1313 1320 1
11772 1313 1392 1
11773 1313 1394 1
11774 1313 1396 1
11775 1313 1408 1
11776 1313 1409 1
11777 1313 1411 1
11778 1314 1319 1
11779 1314 1320 1
11780 1314 1394 1
11781 1314 1396 1
11782 1314 1409 1
11783 1314 1411 1
11784 1315 1316 1
11785 1315 1380 1
11786 1315 1382 1
11787 1315 1399 1
11788 1316 1380 1
11789 1316 1382 1
11790 1316 1384 1
11791 1316 1399 1
11792 1316 1401 1
11793 1316 1415 1
11794 1317 1318 1
11795 1317 1321 1
11796 1317 1322 1
11797 1317 1370 1
11798 1317 1419 1
11799 1317 1420 1
11800 1317 1422 1
11801 1317 1423 1
11802 1318 1322 1
11803 1318 1364 1
11804 1318 1370 1
11805 1318 1419 1
11806 1318 1420 1
11807 1318 1421 1
11808 1318 1422 1
11809 1318 1423 1
11810 1307 1319 1
11811 1319 1320 1
11812 1319 1367 1
11813 1319 1368 1
11814 1319 1369 1
11815 1319 1392 1
11816 1319 1394 1
11817 1319 1396 1
11818 1319 1408 1
11819 1319 1409 1
11820 1319 1411 1
11821 1307 1320 1
11822 1320 1368 1
11823 1320 1369 1
11824 1320 1394 1
11825 1320 1396 1
11826 1320 1409 1
11827 1320 1411 1
11828 1305 1321 1
11829 1306 1321 1
11830 1321 1322 1
11831 1321 1419 1
11832 1321 1422 1
11833 1321 1438 1
11834 1305 1322 1
11835 1306 1322 1
11836 1322 1419 1
11837 1322 1420 1
11838 1322 1422 1
11839 1322 1423 1
11840 1322 1438 1
11841 1323 1324 1
11842 1323 1329 1
11843 1323 1331 1
11844 1323 1332 1
11845 1323 1425 1
11846 1323 1426 1
11847 1323 1435 1
11848 1323 1443 1
11849 1323 1445 1
11850 1324 1325 1
11851 1324 1331 1
11852 1324 1332 1
11853 1324 1334 1
11854 1324 1425 1
11855 1324 1426 1
11856 1324 1427 1
11857 1324 1435 1
11858 1324 1436 1
11859 1324 1443 1
11860 1324 1445 1
11861 1324 1447 1
11862 1325 1326 1
11863 1325 1332 1
11864 1325 1334 1
11865 1325 1335 1
11866 1325 1426 1
11867 1325 1427 1
11868 1325 1428 1
11869 1325 1435 1
11870 1325 1436 1
11871 1325 1437 1
11872 1325 1445 1
11873 1325 1447 1
11874 1325 1449 1
11875 1326 1334 1
11876 1326 1335 1
11877 1326 1427 1
11878 1326 1428 1
11879 1326 1436 1
11880 1326 1437 1
11881 1326 1447 1
11882 1326 1449 1
11883 1327 1429 1
11884 1327 1438 1
11885 1328 1329 1
11886 1328 1338 1
11887 1328 1339 1
11888 1328 1341 1
11889 1328 1424 1
11890 1328 1453 1
11891 1328 1454 1
11892 1328 1455 1
11893 1329 1331 1
11894 1329 1339 1
11895 1329 1341 1
11896 1329 1343 1
11897 1329 1424 1
11898 1329 1425 1
11899 1329 1443 1
11900 1329 1454 1
11901 1329 1455 1
11902 1329 1456 1
11903 1330 1340 1
11904 1330 1342 1
11905 1330 1344 1
11906 1330 1431 1
11907 1330 1432 1
11908 1330 1433 1
11909 1330 1435 1
11910 1330 1436 1
11911 1331 1332 1
11912 1331 1341 1
11913 1331 1343 1
11914 1331 1357 1
11915 1331 1425 1
11916 1331 1426 1
11917 1331 1443 1
11918 1331 1445 1
11919 1331 1455 1
11920 1331 1456 1
11921 1331 1458 1
11922 1332 1334 1
11923 1332 1343 1
11924 1332 1357 1
11925 1332 1358 1
11926 1332 1425 1
11927 1332 1426 1
11928 1332 1427 1
11929 1332 1443 1
11930 1332 1445 1
11931 1332 1447 1
11932 1332 1456 1
11933 1332 1458 1
11934 1332 1460 1
11935 1333 1344 1
11936 1333 1345 1
11937 1333 1433 1
11938 1333 1434 1
11939 1333 1436 1
11940 1333 1437 1
11941 1334 1335 1
11942 1334 1357 1
11943 1334 1358 1
11944 1334 1359 1
11945 1334 1426 1
11946 1334 1427 1
11947 1334 1428 1
11948 1334 1445 1
11949 1334 1447 1
11950 1334 1449 1
11951 1334 1458 1
11952 1334 1460 1
11953 1334 1462 1
11954 1335 1358 1
11955 1335 1359 1
11956 1335 1427 1
11957 1335 1428 1
11958 1335 1447 1
11959 1335 1449 1
11960 1335 1460 1
11961 1335 1462 1
11962 1336 1337 1
11963 1336 1360 1
11964 1336 1361 1
11965 1336 1451 1
11966 1337 1338 1
11967 1337 1360 1
11968 1337 1361 1
11969 1337 1362 1
11970 1337 1451 1
11971 1337 1453 1
11972 1338 1339 1
11973 1338 1361 1
11974 1338 1362 1
11975 1338 1363 1
11976 1338 1424 1
11977 1338 1453 1
11978 1338 1454 1
11979 1339 1341 1
11980 1339 1349 1
11981 1339 1362 1
11982 1339 1363 1
11983 1339 1424 1
11984 1339 1453 1
11985 1339 1454 1
11986 1339 1455 1
11987 1339 1465 1
11988 1323 1340 1
11989 1324 1340 1
11990 1340 1342 1
11991 1340 1347 1
11992 1340 1425 1
11993 1340 1426 1
11994 1340 1431 1
11995 1340 1432 1
11996 1340 1435 1
11997 1341 1343 1
11998 1341 1349 1
11999 1341 1350 1
12000 1341 1363 1
12001 1341 1424 1
12002 1341 1443 1
12003 1341 1454 1
12004 1341 1455 1
12005 1341 1456 1
12006 1341 1465 1
12007 1341 1467 1
12008 1323 1342 1
12009 1324 1342 1
12010 1325 1342 1
12011 1342 1344 1
12012 1342 1425 1
12013 1342 1426 1
12014 1342 1427 1
12015 1342 1431 1
12016 1342 1432 1
12017 1342 1433 1
12018 1342 1435 1
12019 1342 1436 1
12020 1343 1349 1
12021 1343 1350 1
12022 1343 1351 1
12023 1343 1357 1
12024 1343 1443 1
12025 1343 1445 1
12026 1343 1455 1
12027 1343 1456 1
12028 1343 1458 1
12029 1343 1465 1
12030 1343 1467 1
12031 1343 1469 1
12032 1324 1344 1
12033 1325 1344 1
12034 1326 1344 1
12035 1344 1345 1
12036 1344 1426 1
12037 1344 1427 1
12038 1344 1428 1
12039 1344 1432 1
12040 1344 1433 1
12041 1344 1434 1
12042 1344 1435 1
12043 1344 1436 1
12044 1344 1437 1
12045 1325 1345 1
12046 1326 1345 1
12047 1345 1427 1
12048 1345 1428 1
12049 1345 1433 1
12050 1345 1434 1
12051 1345 1436 1
12052 1345 1437 1
12053 1328 1346 1
12054 1329 1346 1
12055 1346 1347 1
12056 1346 1424 1
12057 1323 1347 1
12058 1328 1347 1
12059 1329 1347 1
12060 1331 1347 1
12061 1347 1424 1
12062 1347 1425 1
12063 1347 1443 1
12064 1348 1372 1
12065 1348 1385 1
12066 1348 1387 1
12067 1348 1389 1
12068 1348 1444 1
12069 1348 1446 1
12070 1348 1448 1
12071 1348 1457 1
12072 1348 1459 1
12073 1348 1461 1
12074 1348 1465 1
12075 1348 1467 1
12076 1348 1469 1
12077 1348 1349 1
12078 1349 1350 1
12079 1349 1355 1
12080 1349 1356 1
12081 1349 1444 1
12082 1349 1446 1
12083 1349 1454 1
12084 1349 1455 1
12085 1349 1456 1
12086 1349 1465 1
12087 1349 1467 1
12088 1348 1350 1
12089 1350 1351 1
12090 1350 1356 1
12091 1350 1372 1
12092 1350 1444 1
12093 1350 1446 1
12094 1350 1448 1
12095 1350 1455 1
12096 1350 1456 1
12097 1350 1458 1
12098 1350 1465 1
12099 1350 1467 1
12100 1350 1469 1
12101 1348 1351 1
12102 1351 1352 1
12103 1351 1372 1
12104 1351 1374 1
12105 1351 1446 1
12106 1351 1448 1
12107 1351 1450 1
12108 1351 1456 1
12109 1351 1458 1
12110 1351 1460 1
12111 1351 1467 1
12112 1351 1469 1
12113 1351 1471 1
12114 1352 1353 1
12115 1352 1372 1
12116 1352 1374 1
12117 1352 1376 1
12118 1352 1448 1
12119 1352 1450 1
12120 1352 1452 1
12121 1352 1458 1
12122 1352 1460 1
12123 1352 1462 1
12124 1352 1469 1
12125 1352 1471 1
12126 1352 1473 1
12127 1353 1374 1
12128 1353 1376 1
12129 1353 1450 1
12130 1353 1452 1
12131 1353 1460 1
12132 1353 1462 1
12133 1353 1471 1
12134 1353 1473 1
12135 1354 1378 1
12136 1354 1379 1
12137 1355 1356 1
12138 1355 1381 1
12139 1355 1383 1
12140 1355 1385 1
12141 1355 1444 1
12142 1355 1457 1
12143 1355 1465 1
12144 1348 1356 1
12145 1356 1383 1
12146 1356 1385 1
12147 1356 1387 1
12148 1356 1444 1
12149 1356 1446 1
12150 1356 1457 1
12151 1356 1459 1
12152 1356 1465 1
12153 1356 1467 1
12154 1350 1357 1
12155 1351 1357 1
12156 1352 1357 1
12157 1357 1358 1
12158 1357 1443 1
12159 1357 1445 1
12160 1357 1447 1
12161 1357 1456 1
12162 1357 1458 1
12163 1357 1460 1
12164 1357 1467 1
12165 1357 1469 1
12166 1357 1471 1
12167 1351 1358 1
12168 1352 1358 1
12169 1353 1358 1
12170 1358 1359 1
12171 1358 1445 1
12172 1358 1447 1
12173 1358 1449 1
12174 1358 1458 1
12175 1358 1460 1
12176 1358 1462 1
12177 1358 1469 1
12178 1358 1471 1
12179 1358 1473 1
12180 1352 1359 1
12181 1353 1359 1
12182 1359 1447 1
12183 1359 1449 1
12184 1359 1460 1
12185 1359 1462 1
12186 1359 1471 1
12187 1359 1473 1
12188 1354 1360 1
12189 1360 1361 1
12190 1360 1451 1
12191 1354 1361 1
12192 1361 1362 1
12193 1361 1451 1
12194 1361 1453 1
12195 1355 1362 1
12196 1362 1363 1
12197 1362 1453 1
12198 1362 1454 1
12199 1349 1363 1
12200 1355 1363 1
12201 1356 1363 1
12202 1363 1444 1
12203 1363 1453 1
12204 1363 1454 1
12205 1363 1455 1
12206 1363 1465 1
12207 1364 1416 1
12208 1364 1420 1
12209 1364 1421 1
12210 1364 1365 1
12211 1365 1366 1
12212 1365 1370 1
12213 1364 1366 1
12214 1366 1370 1
12215 1366 1416 1
12216 1367 1368 1
12217 1367 1416 1
12218 1367 1417 1
12219 1368 1369 1
12220 1368 1417 1
12221 1368 1418 1
12222 1369 1418 1
12223 1364 1370 1
12224 1370 1419 1
12225 1370 1420 1
12226 1370 1421 1
12227 1371 1373 1
12228 1371 1439 1
12229 1371 1440 1
12230 1371 1441 1
12231 1371 1466 1
12232 1371 1468 1
12233 1371 1470 1
12234 1372 1374 1
12235 1372 1387 1
12236 1372 1389 1
12237 1372 1391 1
12238 1372 1446 1
12239 1372 1448 1
12240 1372 1450 1
12241 1372 1459 1
12242 1372 1461 1
12243 1372 1467 1
12244 1372 1469 1
12245 1372 1471 1
12246 1373 1375 1
12247 1373 1440 1
12248 1373 1441 1
12249 1373 1442 1
12250 1373 1468 1
12251 1373 1470 1
12252 1373 1472 1
12253 1374 1376 1
12254 1374 1389 1
12255 1374 1391 1
12256 1374 1393 1
12257 1374 1448 1
12258 1374 1450 1
12259 1374 1452 1
12260 1374 1461 1
12261 1374 1469 1
12262 1374 1471 1
12263 1374 1473 1
12264 1375 1377 1
12265 1375 1441 1
12266 1375 1442 1
12267 1375 1470 1
12268 1375 1472 1
12269 1376 1391 1
12270 1376 1393 1
12271 1376 1450 1
12272 1376 1452 1
12273 1376 1471 1
12274 1376 1473 1
12275 1377 1442 1
12276 1377 1472 1
12277 1378 1379 1
12278 1378 1395 1
12279 1378 1397 1
12280 1378 1463 1
12281 1379 1381 1
12282 1379 1395 1
12283 1379 1397 1
12284 1379 1398 1
12285 1379 1463 1
12286 1379 1464 1
12287 1380 1382 1
12288 1380 1399 1
12289 1381 1383 1
12290 1381 1397 1
12291 1381 1398 1
12292 1381 1400 1
12293 1381 1463 1
12294 1381 1464 1
12295 1381 1466 1
12296 1382 1384 1
12297 1382 1399 1
12298 1382 1401 1
12299 1383 1385 1
12300 1383 1398 1
12301 1383 1400 1
12302 1383 1402 1
12303 1383 1444 1
12304 1383 1457 1
12305 1383 1464 1
12306 1383 1466 1
12307 1383 1468 1
12308 1384 1386 1
12309 1384 1399 1
12310 1384 1401 1
12311 1385 1387 1
12312 1385 1400 1
12313 1385 1402 1
12314 1385 1403 1
12315 1385 1444 1
12316 1385 1446 1
12317 1385 1457 1
12318 1385 1459 1
12319 1385 1466 1
12320 1385 1468 1
12321 1385 1470 1
12322 1386 1388 1
12323 1386 1401 1
12324 1386 1404 1
12325 1387 1389 1
12326 1387 1402 1
12327 1387 1403 1
12328 1387 1405 1
12329 1387 1444 1
12330 1387 1446 1
12331 1387 1448 1
12332 1387 1457 1
12333 1387 1459 1
12334 1387 1461 1
12335 1387 1468 1
12336 1387 1470 1
12337 1387 1472 1
12338 1388 1390 1
12339 1388 1404 1
12340 1388 1406 1
12341 1389 1391 1
12342 1389 1403 1
12343 1389 1405 1
12344 1389 1407 1
12345 1389 1446 1
12346 1389 1448 1
12347 1389 1450 1
12348 1389 1459 1
12349 1389 1461 1
12350 1389 1470 1
12351 1389 1472 1
12352 1390 1392 1
12353 1390 1404 1
12354 1390 1406 1
12355 1390 1408 1
12356 1391 1393 1
12357 1391 1405 1
12358 1391 1407 1
12359 1391 1448 1
12360 1391 1450 1
12361 1391 1452 1
12362 1391 1461 1
12363 1391 1472 1
12364 1392 1394 1
12365 1392 1406 1
12366 1392 1408 1
12367 1392 1409 1
12368 1393 1407 1
12369 1393 1450 1
12370 1393 1452 1
12371 1394 1396 1
12372 1394 1408 1
12373 1394 1409 1
12374 1394 1411 1
12375 1395 1397 1
12376 1395 1410 1
12377 1395 1412 1
12378 1395 1463 1
12379 1396 1409 1
12380 1396 1411 1
12381 1397 1398 1
12382 1397 1410 1
12383 1397 1412 1
12384 1397 1413 1
12385 1397 1463 1
12386 1397 1464 1
12387 1398 1400 1
12388 1398 1412 1
12389 1398 1413 1
12390 1398 1414 1
12391 1398 1439 1
12392 1398 1463 1
12393 1398 1464 1
12394 1398 1466 1
12395 1399 1401 1
12396 1399 1415 1
12397 1371 1400 1
12398 1400 1402 1
12399 1400 1413 1
12400 1400 1414 1
12401 1400 1439 1
12402 1400 1440 1
12403 1400 1457 1
12404 1400 1464 1
12405 1400 1466 1
12406 1400 1468 1
12407 1365 1401 1
12408 1401 1415 1
12409 1371 1402 1
12410 1373 1402 1
12411 1402 1403 1
12412 1402 1414 1
12413 1402 1439 1
12414 1402 1440 1
12415 1402 1441 1
12416 1402 1457 1
12417 1402 1459 1
12418 1402 1466 1
12419 1402 1468 1
12420 1402 1470 1
12421 1371 1403 1
12422 1373 1403 1
12423 1375 1403 1
12424 1403 1405 1
12425 1403 1440 1
12426 1403 1441 1
12427 1403 1442 1
12428 1403 1457 1
12429 1403 1459 1
12430 1403 1461 1
12431 1403 1468 1
12432 1403 1470 1
12433 1403 1472 1
12434 1365 1404 1
12435 1366 1404 1
12436 1404 1406 1
12437 1373 1405 1
12438 1375 1405 1
12439 1377 1405 1
12440 1405 1407 1
12441 1405 1441 1
12442 1405 1442 1
12443 1405 1459 1
12444 1405 1461 1
12445 1405 1470 1
12446 1405 1472 1
12447 1366 1406 1
12448 1367 1406 1
12449 1406 1408 1
12450 1375 1407 1
12451 1377 1407 1
12452 1407 1442 1
12453 1407 1461 1
12454 1407 1472 1
12455 1367 1408 1
12456 1368 1408 1
12457 1408 1409 1
12458 1367 1409 1
12459 1368 1409 1
12460 1369 1409 1
12461 1409 1411 1
12462 1410 1412 1
12463 1410 1463 1
12464 1368 1411 1
12465 1369 1411 1
12466 1412 1413 1
12467 1412 1463 1
12468 1412 1464 1
12469 1413 1414 1
12470 1413 1439 1
12471 1413 1463 1
12472 1413 1464 1
12473 1413 1466 1
12474 1371 1414 1
12475 1414 1439 1
12476 1414 1440 1
12477 1414 1464 1
12478 1414 1466 1
12479 1414 1468 1
12480 1365 1415 1
12481 1370 1415 1
12482 1416 1417 1
12483 1416 1421 1
12484 1419 1420 1
12485 1419 1422 1
12486 1419 1423 1
12487 1420 1421 1
12488 1420 1422 1
12489 1420 1423 1
12490 1421 1423 1
12491 1422 1423 1
12492 1422 1438 1
12493 1423 1438 1
12494 1424 1453 1
12495 1424 1454 1
12496 1424 1455 1
12497 1425 1426 1
12498 1425 1443 1
12499 1425 1445 1
12500 1426 1427 1
12501 1426 1443 1
12502 1426 1445 1
12503 1426 1447 1
12504 1427 1428 1
12505 1427 1445 1
12506 1427 1447 1
12507 1427 1449 1
12508 1428 1447 1
12509 1428 1449 1
12510 1429 1430 1
12511 1431 1432 1
12512 1431 1435 1
12513 1432 1433 1
12514 1432 1435 1
12515 1432 1436 1
12516 1433 1434 1
12517 1433 1435 1
12518 1433 1436 1
12519 1433 1437 1
12520 1434 1436 1
12521 1434 1437 1
12522 1425 1435 1
12523 1426 1435 1
12524 1427 1435 1
12525 1435 1436 1
12526 1426 1436 1
12527 1427 1436 1
12528 1428 1436 1
12529 1436 1437 1
12530 1427 1437 1
12531 1428 1437 1
12532 1429 1438 1
12533 1430 1438 1
12534 1439 1440 1
12535 1440 1441 1
12536 1441 1442 1
12537 1443 1445 1
12538 1443 1455 1
12539 1443 1456 1
12540 1443 1458 1
12541 1444 1446 1
12542 1444 1457 1
12543 1444 1459 1
12544 1445 1447 1
12545 1445 1456 1
12546 1445 1458 1
12547 1445 1460 1
12548 1446 1448 1
12549 1446 1457 1
12550 1446 1459 1
12551 1446 1461 1
12552 1447 1449 1
12553 1447 1458 1
12554 1447 1460 1
12555 1447 1462 1
12556 1448 1450 1
12557 1448 1459 1
12558 1448 1461 1
12559 1449 1460 1
12560 1449 1462 1
12561 1450 1452 1
12562 1450 1461 1
12563 1453 1454 1
12564 1454 1455 1
12565 1454 1465 1
12566 1455 1456 1
12567 1455 1465 1
12568 1455 1467 1
12569 1456 1458 1
12570 1456 1465 1
12571 1456 1467 1
12572 1456 1469 1
12573 1457 1459 1
12574 1457 1466 1
12575 1457 1468 1
12576 1457 1470 1
12577 1458 1460 1
12578 1458 1467 1
12579 1458 1469 1
12580 1458 1471 1
12581 1459 1461 1
12582 1459 1468 1
12583 1459 1470 1
12584 1459 1472 1
12585 1460 1462 1
12586 1460 1469 1
12587 1460 1471 1
12588 1460 1473 1
12589 1461 1470 1
12590 1461 1472 1
12591 1462 1471 1
12592 1462 1473 1
12593 1463 1464 1
12594 1439 1464 1
12595 1464 1466 1
12596 1444 1465 1
12597 1446 1465 1
12598 1465 1467 1
12599 1439 1466 1
12600 1440 1466 1
12601 1466 1468 1
12602 1444 1467 1
12603 1446 1467 1
12604 1448 1467 1
12605 1467 1469 1
12606 1439 1468 1
12607 1440 1468 1
12608 1441 1468 1
12609 1468 1470 1
12610 1446 1469 1
12611 1448 1469 1
12612 1450 1469 1
12613 1469 1471 1
12614 1440 1470 1
12615 1441 1470 1
12616 1442 1470 1
12617 1470 1472 1
12618 1448 1471 1
12619 1450 1471 1
12620 1452 1471 1
12621 1471 1473 1
12622 1441 1472 1
12623 1442 1472 1
12624 1450 1473 1
12625 1452 1473 1
@<TRIPOS>SUBSTRUCTURE
1	HIS1	1	RESIDUE	1 A	HIS
2	HIS2	83	RESIDUE	1 A	HIS
3	HIS3	137	RESIDUE	1 A	HIS
4	HIS4	197	RESIDUE	1 A	HIS
5	HIS5	250	RESIDUE	1 A	HIS
6	HIS6	285	RESIDUE	1 A	HIS
7	HIS7	313	RESIDUE	1 A	HIS
8	HIS8	345	RESIDUE	1 A	HIS
9	HIS9	379	RESIDUE	1 A	HIS
10	HIS10	424	RESIDUE	1 A	HIS
11	HIS11	476	RESIDUE	1 A	HIS
12	HIS12	516	RESIDUE	1 A	HIS
13	HIS13	580	RESIDUE	1 A	HIS
14	HIS14	629	RESIDUE	1 A	HIS
15	HIS15	701	RESIDUE	1 A	HIS
16	HIS16	772	RESIDUE	1 A	HIS
17	HIS17	847	RESIDUE	1 A	HIS
18	HIS18	921	RESIDUE	1 A	HIS
19	HIS19	1000	RESIDUE	1 A	HIS
20	HIS20	1058	RESIDUE	1 A	HIS
21	HIS21	1133	RESIDUE	1 A	HIS
22	HIS22	1181	RESIDUE	1 A	HIS
23	HIS23	1231	RESIDUE	1 A	HIS
24	HIS24	1305	RESIDUE	1 A	HIS
25	HIS25	1348	RESIDUE	1 A	HIS
26	HIS26	1424	RESIDUE	1 A	HIS
