7l1u_receptor_and_orexin_empty_pocket_3_empty_space_aligned
  PyMOL2.5          3D                             0

  0  0  0  0  0  0  0  0  0  0999 V3000
M  V30 BEGIN CTAB
M  V30 COUNTS 1473 12625 0 0 0
M  V30 BEGIN ATOM
M  V30 1 O -8.8520 -3.1680 2.8560 0
M  V30 2 O -8.8520 -3.1680 3.8560 0
M  V30 3 O -8.8520 -3.1680 4.8560 0
M  V30 4 O -8.8520 -2.1680 -3.1440 0
M  V30 5 O -8.8520 -2.1680 -2.1440 0
M  V30 6 O -8.8520 -2.1680 -1.1440 0
M  V30 7 O -8.8520 -2.1680 -0.1440 0
M  V30 8 O -8.8520 -2.1680 0.8560 0
M  V30 9 O -8.8520 -2.1680 1.8560 0
M  V30 10 O -8.8520 -2.1680 2.8560 0
M  V30 11 O -8.8520 -2.1680 3.8560 0
M  V30 12 O -8.8520 -6.1680 4.8560 0
M  V30 13 O -8.8520 -5.1680 -3.1440 0
M  V30 14 O -8.8520 0.8320 2.8560 0
M  V30 15 O -8.8520 -2.1680 4.8560 0
M  V30 16 O -8.8520 0.8320 3.8560 0
M  V30 17 O -8.8520 -1.1680 -3.1440 0
M  V30 18 O -8.8520 0.8320 4.8560 0
M  V30 19 O -8.8520 -1.1680 -2.1440 0
M  V30 20 O -8.8520 -1.1680 -1.1440 0
M  V30 21 O -8.8520 1.8320 -2.1440 0
M  V30 22 O -8.8520 -1.1680 -0.1440 0
M  V30 23 O -8.8520 1.8320 -1.1440 0
M  V30 24 O -8.8520 -1.1680 0.8560 0
M  V30 25 O -8.8520 1.8320 -0.1440 0
M  V30 26 O -8.8520 -1.1680 1.8560 0
M  V30 27 O -8.8520 1.8320 0.8560 0
M  V30 28 O -8.8520 -1.1680 2.8560 0
M  V30 29 O -8.8520 1.8320 1.8560 0
M  V30 30 O -8.8520 -1.1680 3.8560 0
M  V30 31 O -8.8520 1.8320 2.8560 0
M  V30 32 O -8.8520 -1.1680 4.8560 0
M  V30 33 O -8.8520 1.8320 3.8560 0
M  V30 34 O -8.8520 -0.1680 -2.1440 0
M  V30 35 O -8.8520 2.8320 -3.1440 0
M  V30 36 O -8.8520 -0.1680 -1.1440 0
M  V30 37 O -8.8520 -0.1680 -0.1440 0
M  V30 38 O -8.8520 -0.1680 0.8560 0
M  V30 39 O -8.8520 -0.1680 1.8560 0
M  V30 40 O -8.8520 -0.1680 2.8560 0
M  V30 41 O -8.8520 -0.1680 3.8560 0
M  V30 42 O -8.8520 -0.1680 4.8560 0
M  V30 43 O -8.8520 0.8320 -1.1440 0
M  V30 44 O -8.8520 0.8320 -0.1440 0
M  V30 45 O -8.8520 0.8320 0.8560 0
M  V30 46 O -8.8520 0.8320 1.8560 0
M  V30 47 O -8.8520 -5.1680 -2.1440 0
M  V30 48 O -8.8520 -8.1680 -0.1440 0
M  V30 49 O -8.8520 -5.1680 -1.1440 0
M  V30 50 O -8.8520 -8.1680 0.8560 0
M  V30 51 O -8.8520 -5.1680 -0.1440 0
M  V30 52 O -8.8520 -5.1680 0.8560 0
M  V30 53 O -8.8520 -5.1680 1.8560 0
M  V30 54 O -8.8520 -5.1680 2.8560 0
M  V30 55 O -8.8520 -8.1680 4.8560 0
M  V30 56 O -8.8520 -5.1680 3.8560 0
M  V30 57 O -8.8520 -7.1680 -3.1440 0
M  V30 58 O -8.8520 -5.1680 4.8560 0
M  V30 59 O -8.8520 -7.1680 -2.1440 0
M  V30 60 O -8.8520 -7.1680 -1.1440 0
M  V30 61 O -8.8520 -4.1680 -2.1440 0
M  V30 62 O -8.8520 -7.1680 -0.1440 0
M  V30 63 O -8.8520 -4.1680 -1.1440 0
M  V30 64 O -8.8520 -4.1680 -0.1440 0
M  V30 65 O -8.8520 -7.1680 1.8560 0
M  V30 66 O -8.8520 -4.1680 0.8560 0
M  V30 67 O -8.8520 -4.1680 1.8560 0
M  V30 68 O -8.8520 -4.1680 2.8560 0
M  V30 69 O -8.8520 -4.1680 3.8560 0
M  V30 70 O -8.8520 -6.1680 -3.1440 0
M  V30 71 O -8.8520 -4.1680 4.8560 0
M  V30 72 O -8.8520 -6.1680 -2.1440 0
M  V30 73 O -8.8520 -6.1680 -1.1440 0
M  V30 74 O -8.8520 -3.1680 -2.1440 0
M  V30 75 O -8.8520 -6.1680 -0.1440 0
M  V30 76 O -8.8520 -3.1680 -1.1440 0
M  V30 77 O -8.8520 -6.1680 0.8560 0
M  V30 78 O -8.8520 -3.1680 -0.1440 0
M  V30 79 O -8.8520 -6.1680 1.8560 0
M  V30 80 O -8.8520 -3.1680 0.8560 0
M  V30 81 O -8.8520 -6.1680 2.8560 0
M  V30 82 O -8.8520 -3.1680 1.8560 0
M  V30 83 O -8.8520 3.8320 1.8560 0
M  V30 84 O -8.8520 4.8320 -3.1440 0
M  V30 85 O -8.8520 4.8320 -2.1440 0
M  V30 86 O -8.8520 4.8320 -1.1440 0
M  V30 87 O -8.8520 4.8320 -0.1440 0
M  V30 88 O -8.8520 4.8320 0.8560 0
M  V30 89 O -8.8520 2.8320 -2.1440 0
M  V30 90 O -8.8520 2.8320 -1.1440 0
M  V30 91 O -8.8520 2.8320 -0.1440 0
M  V30 92 O -8.8520 2.8320 0.8560 0
M  V30 93 O -8.8520 3.8320 -2.1440 0
M  V30 94 O -8.8520 3.8320 -1.1440 0
M  V30 95 O -7.8520 -5.1680 1.8560 0
M  V30 96 O -7.8520 -6.1680 1.8560 0
M  V30 97 O -7.8520 -6.1680 2.8560 0
M  V30 98 O -7.8520 -6.1680 3.8560 0
M  V30 99 O -7.8520 -5.1680 -3.1440 0
M  V30 100 O -7.8520 -5.1680 -2.1440 0
M  V30 101 O -7.8520 -5.1680 -1.1440 0
M  V30 102 O -7.8520 -5.1680 -0.1440 0
M  V30 103 O -7.8520 -5.1680 0.8560 0
M  V30 104 O -8.8520 7.8320 1.8560 0
M  V30 105 O -8.8520 7.8320 2.8560 0
M  V30 106 O -8.8520 7.8320 3.8560 0
M  V30 107 O -8.8520 5.8320 -3.1440 0
M  V30 108 O -8.8520 5.8320 -2.1440 0
M  V30 109 O -8.8520 5.8320 -1.1440 0
M  V30 110 O -8.8520 5.8320 -0.1440 0
M  V30 111 O -8.8520 5.8320 0.8560 0
M  V30 112 O -7.8520 -8.1680 -0.1440 0
M  V30 113 O -8.8520 5.8320 1.8560 0
M  V30 114 O -7.8520 -7.1680 -2.1440 0
M  V30 115 O -7.8520 -7.1680 -1.1440 0
M  V30 116 O -8.8520 6.8320 0.8560 0
M  V30 117 O -8.8520 6.8320 1.8560 0
M  V30 118 O -8.8520 6.8320 2.8560 0
M  V30 119 O -8.8520 7.8320 -3.1440 0
M  V30 120 O -7.8520 -6.1680 -3.1440 0
M  V30 121 O -7.8520 -6.1680 -2.1440 0
M  V30 122 O -7.8520 -6.1680 -1.1440 0
M  V30 123 O -8.8520 7.8320 0.8560 0
M  V30 124 O -7.8520 -6.1680 -0.1440 0
M  V30 125 O -7.8520 -5.1680 2.8560 0
M  V30 126 O -7.8520 -5.1680 3.8560 0
M  V30 127 O -7.8520 -5.1680 4.8560 0
M  V30 128 O -7.8520 -4.1680 -3.1440 0
M  V30 129 O -7.8520 -4.1680 -2.1440 0
M  V30 130 O -7.8520 -4.1680 -1.1440 0
M  V30 131 O -7.8520 -4.1680 -0.1440 0
M  V30 132 O -7.8520 -4.1680 2.8560 0
M  V30 133 O -7.8520 -4.1680 3.8560 0
M  V30 134 O -7.8520 -4.1680 4.8560 0
M  V30 135 O -7.8520 -3.1680 -3.1440 0
M  V30 136 O -7.8520 -3.1680 -2.1440 0
M  V30 137 O -7.8520 1.8320 0.8560 0
M  V30 138 O -7.8520 0.8320 -0.1440 0
M  V30 139 O -7.8520 0.8320 0.8560 0
M  V30 140 O -7.8520 0.8320 1.8560 0
M  V30 141 O -7.8520 0.8320 2.8560 0
M  V30 142 O -7.8520 0.8320 3.8560 0
M  V30 143 O -7.8520 0.8320 4.8560 0
M  V30 144 O -7.8520 1.8320 -1.1440 0
M  V30 145 O -7.8520 1.8320 -0.1440 0
M  V30 146 O -7.8520 -2.1680 0.8560 0
M  V30 147 O -7.8520 -2.1680 1.8560 0
M  V30 148 O -7.8520 -2.1680 2.8560 0
M  V30 149 O -7.8520 -2.1680 3.8560 0
M  V30 150 O -7.8520 -2.1680 4.8560 0
M  V30 151 O -7.8520 -1.1680 -3.1440 0
M  V30 152 O -7.8520 -1.1680 -2.1440 0
M  V30 153 O -7.8520 -1.1680 -1.1440 0
M  V30 154 O -7.8520 -1.1680 0.8560 0
M  V30 155 O -7.8520 -1.1680 1.8560 0
M  V30 156 O -7.8520 -1.1680 2.8560 0
M  V30 157 O -7.8520 -1.1680 3.8560 0
M  V30 158 O -7.8520 -1.1680 4.8560 0
M  V30 159 O -7.8520 -3.1680 -1.1440 0
M  V30 160 O -7.8520 -0.1680 -2.1440 0
M  V30 161 O -7.8520 -3.1680 -0.1440 0
M  V30 162 O -7.8520 -0.1680 -1.1440 0
M  V30 163 O -7.8520 -3.1680 0.8560 0
M  V30 164 O -7.8520 -0.1680 -0.1440 0
M  V30 165 O -7.8520 -3.1680 1.8560 0
M  V30 166 O -7.8520 -0.1680 0.8560 0
M  V30 167 O -7.8520 -3.1680 2.8560 0
M  V30 168 O -7.8520 -0.1680 1.8560 0
M  V30 169 O -7.8520 -3.1680 3.8560 0
M  V30 170 O -7.8520 -0.1680 2.8560 0
M  V30 171 O -7.8520 -3.1680 4.8560 0
M  V30 172 O -7.8520 -0.1680 3.8560 0
M  V30 173 O -7.8520 -2.1680 -3.1440 0
M  V30 174 O -7.8520 -0.1680 4.8560 0
M  V30 175 O -7.8520 -2.1680 -2.1440 0
M  V30 176 O -7.8520 -2.1680 -1.1440 0
M  V30 177 O -7.8520 -2.1680 -0.1440 0
M  V30 178 O -7.8520 0.8320 -1.1440 0
M  V30 179 O -7.8520 1.8320 2.8560 0
M  V30 180 O -7.8520 1.8320 4.8560 0
M  V30 181 O -7.8520 5.8320 -3.1440 0
M  V30 182 O -7.8520 2.8320 -1.1440 0
M  V30 183 O -7.8520 5.8320 -2.1440 0
M  V30 184 O -7.8520 5.8320 -1.1440 0
M  V30 185 O -7.8520 5.8320 0.8560 0
M  V30 186 O -7.8520 5.8320 1.8560 0
M  V30 187 O -7.8520 6.8320 -2.1440 0
M  V30 188 O -7.8520 6.8320 -1.1440 0
M  V30 189 O -7.8520 6.8320 -0.1440 0
M  V30 190 O -7.8520 6.8320 0.8560 0
M  V30 191 O -7.8520 6.8320 1.8560 0
M  V30 192 O -7.8520 6.8320 2.8560 0
M  V30 193 O -7.8520 6.8320 3.8560 0
M  V30 194 O -7.8520 7.8320 -3.1440 0
M  V30 195 O -7.8520 4.8320 -1.1440 0
M  V30 196 O -7.8520 7.8320 -2.1440 0
M  V30 197 O -6.8520 -8.1680 -0.1440 0
M  V30 198 O -7.8520 7.8320 -0.1440 0
M  V30 199 O -7.8520 7.8320 1.8560 0
M  V30 200 O -7.8520 7.8320 2.8560 0
M  V30 201 O -7.8520 7.8320 3.8560 0
M  V30 202 O -6.8520 -2.1680 0.8560 0
M  V30 203 O -6.8520 -2.1680 1.8560 0
M  V30 204 O -6.8520 -2.1680 2.8560 0
M  V30 205 O -6.8520 -2.1680 3.8560 0
M  V30 206 O -6.8520 -2.1680 4.8560 0
M  V30 207 O -6.8520 -1.1680 -3.1440 0
M  V30 208 O -6.8520 -1.1680 -2.1440 0
M  V30 209 O -6.8520 -5.1680 -1.1440 0
M  V30 210 O -6.8520 -5.1680 3.8560 0
M  V30 211 O -6.8520 -5.1680 4.8560 0
M  V30 212 O -6.8520 -4.1680 -3.1440 0
M  V30 213 O -6.8520 -7.1680 -1.1440 0
M  V30 214 O -6.8520 -4.1680 -2.1440 0
M  V30 215 O -6.8520 -7.1680 -0.1440 0
M  V30 216 O -6.8520 -4.1680 -1.1440 0
M  V30 217 O -6.8520 -4.1680 3.8560 0
M  V30 218 O -6.8520 -6.1680 -3.1440 0
M  V30 219 O -6.8520 -4.1680 4.8560 0
M  V30 220 O -6.8520 -6.1680 -2.1440 0
M  V30 221 O -6.8520 -3.1680 -3.1440 0
M  V30 222 O -6.8520 -6.1680 -1.1440 0
M  V30 223 O -6.8520 -3.1680 -2.1440 0
M  V30 224 O -6.8520 -6.1680 -0.1440 0
M  V30 225 O -6.8520 -3.1680 -1.1440 0
M  V30 226 O -6.8520 -3.1680 -0.1440 0
M  V30 227 O -6.8520 -6.1680 3.8560 0
M  V30 228 O -6.8520 -6.1680 4.8560 0
M  V30 229 O -6.8520 -3.1680 3.8560 0
M  V30 230 O -6.8520 -5.1680 -3.1440 0
M  V30 231 O -6.8520 -3.1680 4.8560 0
M  V30 232 O -6.8520 -5.1680 -2.1440 0
M  V30 233 O -6.8520 1.8320 -0.1440 0
M  V30 234 O -6.8520 -1.1680 1.8560 0
M  V30 235 O -6.8520 -1.1680 2.8560 0
M  V30 236 O -6.8520 -1.1680 3.8560 0
M  V30 237 O -6.8520 -1.1680 4.8560 0
M  V30 238 O -6.8520 -0.1680 -2.1440 0
M  V30 239 O -6.8520 -0.1680 -1.1440 0
M  V30 240 O -6.8520 -0.1680 0.8560 0
M  V30 241 O -6.8520 -0.1680 1.8560 0
M  V30 242 O -6.8520 -0.1680 2.8560 0
M  V30 243 O -6.8520 -0.1680 3.8560 0
M  V30 244 O -6.8520 -0.1680 4.8560 0
M  V30 245 O -6.8520 0.8320 -1.1440 0
M  V30 246 O -6.8520 0.8320 -0.1440 0
M  V30 247 O -6.8520 0.8320 2.8560 0
M  V30 248 O -6.8520 0.8320 3.8560 0
M  V30 249 O -6.8520 0.8320 4.8560 0
M  V30 250 O -6.8520 5.8320 -2.1440 0
M  V30 251 O -6.8520 1.8320 1.8560 0
M  V30 252 O -6.8520 1.8320 2.8560 0
M  V30 253 O -6.8520 1.8320 3.8560 0
M  V30 254 O -6.8520 2.8320 -1.1440 0
M  V30 255 O -5.8520 -4.1680 -3.1440 0
M  V30 256 O -5.8520 -6.1680 4.8560 0
M  V30 257 O -5.8520 -5.1680 -3.1440 0
M  V30 258 O -5.8520 -5.1680 -2.1440 0
M  V30 259 O -5.8520 -5.1680 3.8560 0
M  V30 260 O -5.8520 -5.1680 4.8560 0
M  V30 261 O -5.8520 -8.1680 -0.1440 0
M  V30 262 O -5.8520 -8.1680 0.8560 0
M  V30 263 O -6.8520 5.8320 2.8560 0
M  V30 264 O -6.8520 5.8320 3.8560 0
M  V30 265 O -6.8520 5.8320 4.8560 0
M  V30 266 O -6.8520 6.8320 -2.1440 0
M  V30 267 O -5.8520 -7.1680 -2.1440 0
M  V30 268 O -5.8520 -7.1680 -1.1440 0
M  V30 269 O -6.8520 6.8320 1.8560 0
M  V30 270 O -6.8520 6.8320 2.8560 0
M  V30 271 O -6.8520 6.8320 3.8560 0
M  V30 272 O -6.8520 6.8320 4.8560 0
M  V30 273 O -5.8520 -7.1680 4.8560 0
M  V30 274 O -6.8520 7.8320 -2.1440 0
M  V30 275 O -5.8520 -6.1680 -3.1440 0
M  V30 276 O -6.8520 7.8320 -1.1440 0
M  V30 277 O -5.8520 -6.1680 -2.1440 0
M  V30 278 O -5.8520 -6.1680 -1.1440 0
M  V30 279 O -6.8520 7.8320 3.8560 0
M  V30 280 O -5.8520 -6.1680 2.8560 0
M  V30 281 O -6.8520 7.8320 4.8560 0
M  V30 282 O -5.8520 -6.1680 3.8560 0
M  V30 283 O -5.8520 -4.1680 -2.1440 0
M  V30 284 O -5.8520 -4.1680 -1.1440 0
M  V30 285 O -5.8520 0.8320 3.8560 0
M  V30 286 O -5.8520 1.8320 -1.1440 0
M  V30 287 O -5.8520 -2.1680 4.8560 0
M  V30 288 O -5.8520 -1.1680 0.8560 0
M  V30 289 O -5.8520 -1.1680 1.8560 0
M  V30 290 O -5.8520 -1.1680 2.8560 0
M  V30 291 O -5.8520 -4.1680 4.8560 0
M  V30 292 O -5.8520 -1.1680 3.8560 0
M  V30 293 O -5.8520 -1.1680 4.8560 0
M  V30 294 O -5.8520 -3.1680 3.8560 0
M  V30 295 O -5.8520 -3.1680 4.8560 0
M  V30 296 O -5.8520 -0.1680 3.8560 0
M  V30 297 O -5.8520 -0.1680 4.8560 0
M  V30 298 O -5.8520 0.8320 -1.1440 0
M  V30 299 O -5.8520 -2.1680 0.8560 0
M  V30 300 O -5.8520 -2.1680 2.8560 0
M  V30 301 O -5.8520 -2.1680 3.8560 0
M  V30 302 O -5.8520 4.8320 3.8560 0
M  V30 303 O -5.8520 5.8320 -3.1440 0
M  V30 304 O -5.8520 2.8320 2.8560 0
M  V30 305 O -5.8520 2.8320 3.8560 0
M  V30 306 O -5.8520 5.8320 2.8560 0
M  V30 307 O -5.8520 5.8320 3.8560 0
M  V30 308 O -5.8520 5.8320 4.8560 0
M  V30 309 O -5.8520 6.8320 -2.1440 0
M  V30 310 O -5.8520 3.8320 2.8560 0
M  V30 311 O -5.8520 6.8320 1.8560 0
M  V30 312 O -5.8520 4.8320 2.8560 0
M  V30 313 O -5.8520 7.8320 4.8560 0
M  V30 314 O -4.8520 -8.1680 -1.1440 0
M  V30 315 O -4.8520 -8.1680 -0.1440 0
M  V30 316 O -5.8520 6.8320 3.8560 0
M  V30 317 O -5.8520 6.8320 4.8560 0
M  V30 318 O -5.8520 7.8320 -3.1440 0
M  V30 319 O -5.8520 7.8320 -1.1440 0
M  V30 320 O -4.8520 -2.1680 1.8560 0
M  V30 321 O -4.8520 -2.1680 2.8560 0
M  V30 322 O -4.8520 -2.1680 3.8560 0
M  V30 323 O -4.8520 -2.1680 4.8560 0
M  V30 324 O -4.8520 -5.1680 3.8560 0
M  V30 325 O -4.8520 -7.1680 -3.1440 0
M  V30 326 O -4.8520 -5.1680 4.8560 0
M  V30 327 O -4.8520 -7.1680 -2.1440 0
M  V30 328 O -4.8520 -4.1680 -3.1440 0
M  V30 329 O -4.8520 -7.1680 -1.1440 0
M  V30 330 O -4.8520 -7.1680 2.8560 0
M  V30 331 O -4.8520 -4.1680 3.8560 0
M  V30 332 O -4.8520 -6.1680 -3.1440 0
M  V30 333 O -4.8520 -4.1680 4.8560 0
M  V30 334 O -4.8520 -6.1680 3.8560 0
M  V30 335 O -4.8520 -6.1680 4.8560 0
M  V30 336 O -4.8520 -3.1680 3.8560 0
M  V30 337 O -4.8520 -5.1680 -3.1440 0
M  V30 338 O -4.8520 -3.1680 4.8560 0
M  V30 339 O -4.8520 -5.1680 -1.1440 0
M  V30 340 O -4.8520 -1.1680 3.8560 0
M  V30 341 O -4.8520 -1.1680 4.8560 0
M  V30 342 O -4.8520 -0.1680 4.8560 0
M  V30 343 O -4.8520 0.8320 -3.1440 0
M  V30 344 O -4.8520 0.8320 -2.1440 0
M  V30 345 O -4.8520 5.8320 1.8560 0
M  V30 346 O -4.8520 4.8320 1.8560 0
M  V30 347 O -4.8520 4.8320 2.8560 0
M  V30 348 O -4.8520 4.8320 3.8560 0
M  V30 349 O -4.8520 5.8320 -2.1440 0
M  V30 350 O -4.8520 1.8320 3.8560 0
M  V30 351 O -4.8520 2.8320 -3.1440 0
M  V30 352 O -4.8520 2.8320 -2.1440 0
M  V30 353 O -4.8520 2.8320 -1.1440 0
M  V30 354 O -4.8520 2.8320 2.8560 0
M  V30 355 O -4.8520 2.8320 3.8560 0
M  V30 356 O -4.8520 3.8320 -2.1440 0
M  V30 357 O -4.8520 3.8320 1.8560 0
M  V30 358 O -4.8520 3.8320 2.8560 0
M  V30 359 O -4.8520 0.8320 4.8560 0
M  V30 360 O -4.8520 1.8320 -2.1440 0
M  V30 361 O -4.8520 1.8320 -1.1440 0
M  V30 362 O -4.8520 4.8320 -2.1440 0
M  V30 363 O -3.8520 -8.1680 0.8560 0
M  V30 364 O -4.8520 5.8320 2.8560 0
M  V30 365 O -3.8520 -8.1680 1.8560 0
M  V30 366 O -3.8520 -8.1680 2.8560 0
M  V30 367 O -4.8520 5.8320 4.8560 0
M  V30 368 O -4.8520 6.8320 -3.1440 0
M  V30 369 O -4.8520 6.8320 -2.1440 0
M  V30 370 O -4.8520 6.8320 1.8560 0
M  V30 371 O -4.8520 6.8320 2.8560 0
M  V30 372 O -4.8520 6.8320 3.8560 0
M  V30 373 O -4.8520 6.8320 4.8560 0
M  V30 374 O -4.8520 7.8320 -3.1440 0
M  V30 375 O -4.8520 7.8320 -1.1440 0
M  V30 376 O -3.8520 -6.1680 4.8560 0
M  V30 377 O -3.8520 -8.1680 -1.1440 0
M  V30 378 O -3.8520 -8.1680 -0.1440 0
M  V30 379 O -3.8520 -4.1680 4.8560 0
M  V30 380 O -3.8520 -3.1680 3.8560 0
M  V30 381 O -3.8520 -3.1680 4.8560 0
M  V30 382 O -3.8520 1.8320 -1.1440 0
M  V30 383 O -3.8520 1.8320 3.8560 0
M  V30 384 O -3.8520 1.8320 4.8560 0
M  V30 385 O -3.8520 2.8320 -2.1440 0
M  V30 386 O -3.8520 2.8320 -1.1440 0
M  V30 387 O -3.8520 2.8320 -0.1440 0
M  V30 388 O -3.8520 -1.1680 -0.1440 0
M  V30 389 O -3.8520 -1.1680 0.8560 0
M  V30 390 O -3.8520 -1.1680 2.8560 0
M  V30 391 O -3.8520 -1.1680 3.8560 0
M  V30 392 O -3.8520 -1.1680 4.8560 0
M  V30 393 O -3.8520 -0.1680 -3.1440 0
M  V30 394 O -3.8520 -0.1680 -2.1440 0
M  V30 395 O -3.8520 -0.1680 3.8560 0
M  V30 396 O -3.8520 -0.1680 4.8560 0
M  V30 397 O -3.8520 0.8320 -3.1440 0
M  V30 398 O -3.8520 0.8320 -2.1440 0
M  V30 399 O -3.8520 -2.1680 -0.1440 0
M  V30 400 O -3.8520 -2.1680 0.8560 0
M  V30 401 O -3.8520 -2.1680 2.8560 0
M  V30 402 O -3.8520 -2.1680 3.8560 0
M  V30 403 O -3.8520 -2.1680 4.8560 0
M  V30 404 O -3.8520 0.8320 4.8560 0
M  V30 405 O -3.8520 1.8320 -3.1440 0
M  V30 406 O -3.8520 1.8320 -2.1440 0
M  V30 407 O -3.8520 -5.1680 4.8560 0
M  V30 408 O -3.8520 -4.1680 -3.1440 0
M  V30 409 O -3.8520 -4.1680 -1.1440 0
M  V30 410 O -3.8520 5.8320 -1.1440 0
M  V30 411 O -3.8520 2.8320 0.8560 0
M  V30 412 O -3.8520 2.8320 1.8560 0
M  V30 413 O -3.8520 5.8320 0.8560 0
M  V30 414 O -3.8520 2.8320 2.8560 0
M  V30 415 O -3.8520 5.8320 1.8560 0
M  V30 416 O -3.8520 3.8320 -1.1440 0
M  V30 417 O -3.8520 3.8320 0.8560 0
M  V30 418 O -3.8520 3.8320 1.8560 0
M  V30 419 O -3.8520 4.8320 -1.1440 0
M  V30 420 O -3.8520 4.8320 -0.1440 0
M  V30 421 O -3.8520 4.8320 0.8560 0
M  V30 422 O -3.8520 4.8320 1.8560 0
M  V30 423 O -3.8520 4.8320 2.8560 0
M  V30 424 O -2.8520 -8.1680 -1.1440 0
M  V30 425 O -2.8520 -8.1680 0.8560 0
M  V30 426 O -2.8520 -8.1680 1.8560 0
M  V30 427 O -3.8520 6.8320 -0.1440 0
M  V30 428 O -3.8520 6.8320 0.8560 0
M  V30 429 O -3.8520 6.8320 1.8560 0
M  V30 430 O -3.8520 6.8320 2.8560 0
M  V30 431 O -3.8520 7.8320 -1.1440 0
M  V30 432 O -3.8520 7.8320 -0.1440 0
M  V30 433 O -3.8520 7.8320 0.8560 0
M  V30 434 O -3.8520 7.8320 1.8560 0
M  V30 435 O -3.8520 7.8320 2.8560 0
M  V30 436 O -2.8520 -0.1680 -2.1440 0
M  V30 437 O -2.8520 -1.1680 -3.1440 0
M  V30 438 O -2.8520 -1.1680 -2.1440 0
M  V30 439 O -2.8520 -1.1680 -1.1440 0
M  V30 440 O -2.8520 -1.1680 -0.1440 0
M  V30 441 O -2.8520 -1.1680 0.8560 0
M  V30 442 O -2.8520 -1.1680 1.8560 0
M  V30 443 O -2.8520 -1.1680 2.8560 0
M  V30 444 O -2.8520 -1.1680 3.8560 0
M  V30 445 O -2.8520 -1.1680 4.8560 0
M  V30 446 O -2.8520 -0.1680 -3.1440 0
M  V30 447 O -2.8520 -4.1680 -1.1440 0
M  V30 448 O -2.8520 -4.1680 -0.1440 0
M  V30 449 O -2.8520 -7.1680 1.8560 0
M  V30 450 O -2.8520 -7.1680 2.8560 0
M  V30 451 O -2.8520 -7.1680 4.8560 0
M  V30 452 O -2.8520 -4.1680 3.8560 0
M  V30 453 O -2.8520 -4.1680 4.8560 0
M  V30 454 O -2.8520 -3.1680 -3.1440 0
M  V30 455 O -2.8520 -3.1680 -1.1440 0
M  V30 456 O -2.8520 -6.1680 1.8560 0
M  V30 457 O -2.8520 -6.1680 2.8560 0
M  V30 458 O -2.8520 -6.1680 3.8560 0
M  V30 459 O -2.8520 -6.1680 4.8560 0
M  V30 460 O -2.8520 -3.1680 3.8560 0
M  V30 461 O -2.8520 -3.1680 4.8560 0
M  V30 462 O -2.8520 -2.1680 -3.1440 0
M  V30 463 O -2.8520 -2.1680 -0.1440 0
M  V30 464 O -2.8520 -2.1680 0.8560 0
M  V30 465 O -2.8520 -5.1680 3.8560 0
M  V30 466 O -2.8520 -2.1680 2.8560 0
M  V30 467 O -2.8520 -5.1680 4.8560 0
M  V30 468 O -2.8520 -2.1680 3.8560 0
M  V30 469 O -2.8520 -2.1680 4.8560 0
M  V30 470 O -2.8520 -0.1680 -0.1440 0
M  V30 471 O -2.8520 -0.1680 0.8560 0
M  V30 472 O -2.8520 -0.1680 2.8560 0
M  V30 473 O -2.8520 -0.1680 3.8560 0
M  V30 474 O -2.8520 -0.1680 4.8560 0
M  V30 475 O -2.8520 0.8320 -3.1440 0
M  V30 476 O -2.8520 5.8320 -0.1440 0
M  V30 477 O -2.8520 5.8320 0.8560 0
M  V30 478 O -2.8520 5.8320 1.8560 0
M  V30 479 O -2.8520 5.8320 2.8560 0
M  V30 480 O -2.8520 2.8320 -2.1440 0
M  V30 481 O -2.8520 2.8320 -1.1440 0
M  V30 482 O -2.8520 2.8320 -0.1440 0
M  V30 483 O -2.8520 2.8320 0.8560 0
M  V30 484 O -2.8520 2.8320 1.8560 0
M  V30 485 O -2.8520 0.8320 -2.1440 0
M  V30 486 O -2.8520 0.8320 -1.1440 0
M  V30 487 O -2.8520 3.8320 -1.1440 0
M  V30 488 O -2.8520 3.8320 -0.1440 0
M  V30 489 O -2.8520 3.8320 0.8560 0
M  V30 490 O -2.8520 0.8320 3.8560 0
M  V30 491 O -2.8520 0.8320 4.8560 0
M  V30 492 O -2.8520 1.8320 -3.1440 0
M  V30 493 O -2.8520 1.8320 -2.1440 0
M  V30 494 O -2.8520 1.8320 -1.1440 0
M  V30 495 O -2.8520 1.8320 -0.1440 0
M  V30 496 O -2.8520 1.8320 0.8560 0
M  V30 497 O -2.8520 4.8320 -0.1440 0
M  V30 498 O -2.8520 1.8320 1.8560 0
M  V30 499 O -2.8520 4.8320 0.8560 0
M  V30 500 O -2.8520 1.8320 2.8560 0
M  V30 501 O -2.8520 4.8320 1.8560 0
M  V30 502 O -2.8520 1.8320 3.8560 0
M  V30 503 O -2.8520 6.8320 0.8560 0
M  V30 504 O -2.8520 6.8320 1.8560 0
M  V30 505 O -1.8520 -7.1680 0.8560 0
M  V30 506 O -2.8520 6.8320 2.8560 0
M  V30 507 O -2.8520 6.8320 3.8560 0
M  V30 508 O -2.8520 6.8320 4.8560 0
M  V30 509 O -2.8520 7.8320 -0.1440 0
M  V30 510 O -2.8520 7.8320 0.8560 0
M  V30 511 O -1.8520 -6.1680 -0.1440 0
M  V30 512 O -2.8520 7.8320 1.8560 0
M  V30 513 O -1.8520 -6.1680 0.8560 0
M  V30 514 O -2.8520 7.8320 2.8560 0
M  V30 515 O -1.8520 -6.1680 1.8560 0
M  V30 516 O -1.8520 -4.1680 4.8560 0
M  V30 517 O -1.8520 -5.1680 3.8560 0
M  V30 518 O -1.8520 -5.1680 4.8560 0
M  V30 519 O -1.8520 -4.1680 -1.1440 0
M  V30 520 O -1.8520 -4.1680 0.8560 0
M  V30 521 O -1.8520 -4.1680 2.8560 0
M  V30 522 O -1.8520 -4.1680 3.8560 0
M  V30 523 O -1.8520 -5.1680 -0.1440 0
M  V30 524 O -1.8520 -5.1680 1.8560 0
M  V30 525 O -1.8520 -5.1680 2.8560 0
M  V30 526 O -1.8520 1.8320 2.8560 0
M  V30 527 O -1.8520 1.8320 3.8560 0
M  V30 528 O -1.8520 1.8320 4.8560 0
M  V30 529 O -1.8520 2.8320 -3.1440 0
M  V30 530 O -1.8520 2.8320 -2.1440 0
M  V30 531 O -1.8520 2.8320 -1.1440 0
M  V30 532 O -1.8520 2.8320 -0.1440 0
M  V30 533 O -1.8520 2.8320 0.8560 0
M  V30 534 O -1.8520 2.8320 1.8560 0
M  V30 535 O -1.8520 2.8320 2.8560 0
M  V30 536 O -1.8520 -1.1680 3.8560 0
M  V30 537 O -1.8520 -1.1680 4.8560 0
M  V30 538 O -1.8520 -0.1680 -3.1440 0
M  V30 539 O -1.8520 -0.1680 0.8560 0
M  V30 540 O -1.8520 -3.1680 2.8560 0
M  V30 541 O -1.8520 -0.1680 1.8560 0
M  V30 542 O -1.8520 -3.1680 3.8560 0
M  V30 543 O -1.8520 -0.1680 2.8560 0
M  V30 544 O -1.8520 -3.1680 4.8560 0
M  V30 545 O -1.8520 -0.1680 3.8560 0
M  V30 546 O -1.8520 -2.1680 -3.1440 0
M  V30 547 O -1.8520 -0.1680 4.8560 0
M  V30 548 O -1.8520 0.8320 -3.1440 0
M  V30 549 O -1.8520 0.8320 -2.1440 0
M  V30 550 O -1.8520 -2.1680 0.8560 0
M  V30 551 O -1.8520 0.8320 -0.1440 0
M  V30 552 O -1.8520 -2.1680 1.8560 0
M  V30 553 O -1.8520 0.8320 0.8560 0
M  V30 554 O -1.8520 -2.1680 2.8560 0
M  V30 555 O -1.8520 0.8320 1.8560 0
M  V30 556 O -1.8520 -2.1680 3.8560 0
M  V30 557 O -1.8520 0.8320 2.8560 0
M  V30 558 O -1.8520 -2.1680 4.8560 0
M  V30 559 O -1.8520 0.8320 3.8560 0
M  V30 560 O -1.8520 -1.1680 -3.1440 0
M  V30 561 O -1.8520 0.8320 4.8560 0
M  V30 562 O -1.8520 1.8320 -3.1440 0
M  V30 563 O -1.8520 1.8320 -2.1440 0
M  V30 564 O -1.8520 1.8320 -1.1440 0
M  V30 565 O -1.8520 -1.1680 0.8560 0
M  V30 566 O -1.8520 1.8320 -0.1440 0
M  V30 567 O -1.8520 -1.1680 1.8560 0
M  V30 568 O -1.8520 1.8320 0.8560 0
M  V30 569 O -1.8520 -1.1680 2.8560 0
M  V30 570 O -1.8520 1.8320 1.8560 0
M  V30 571 O -1.8520 3.8320 -1.1440 0
M  V30 572 O -1.8520 3.8320 -0.1440 0
M  V30 573 O -1.8520 3.8320 0.8560 0
M  V30 574 O -1.8520 3.8320 1.8560 0
M  V30 575 O -1.8520 4.8320 -1.1440 0
M  V30 576 O -1.8520 4.8320 -0.1440 0
M  V30 577 O -1.8520 4.8320 0.8560 0
M  V30 578 O -1.8520 4.8320 1.8560 0
M  V30 579 O -1.8520 4.8320 2.8560 0
M  V30 580 O -0.8520 -7.1680 -3.1440 0
M  V30 581 O -0.8520 -7.1680 0.8560 0
M  V30 582 O -1.8520 5.8320 2.8560 0
M  V30 583 O -1.8520 5.8320 3.8560 0
M  V30 584 O -1.8520 5.8320 4.8560 0
M  V30 585 O -1.8520 6.8320 0.8560 0
M  V30 586 O -1.8520 6.8320 1.8560 0
M  V30 587 O -1.8520 6.8320 2.8560 0
M  V30 588 O -1.8520 6.8320 3.8560 0
M  V30 589 O -1.8520 6.8320 4.8560 0
M  V30 590 O -1.8520 7.8320 -0.1440 0
M  V30 591 O -1.8520 7.8320 0.8560 0
M  V30 592 O -1.8520 7.8320 1.8560 0
M  V30 593 O -1.8520 7.8320 2.8560 0
M  V30 594 O -1.8520 7.8320 3.8560 0
M  V30 595 O -0.8520 -8.1680 -2.1440 0
M  V30 596 O -1.8520 5.8320 -0.1440 0
M  V30 597 O -1.8520 5.8320 0.8560 0
M  V30 598 O -1.8520 5.8320 1.8560 0
M  V30 599 O -0.8520 -1.1680 0.8560 0
M  V30 600 O -0.8520 -1.1680 1.8560 0
M  V30 601 O -0.8520 -1.1680 2.8560 0
M  V30 602 O -0.8520 -1.1680 3.8560 0
M  V30 603 O -0.8520 -1.1680 4.8560 0
M  V30 604 O -0.8520 -0.1680 -3.1440 0
M  V30 605 O -0.8520 -0.1680 -0.1440 0
M  V30 606 O -0.8520 -4.1680 1.8560 0
M  V30 607 O -0.8520 -4.1680 2.8560 0
M  V30 608 O -0.8520 -4.1680 3.8560 0
M  V30 609 O -0.8520 -6.1680 -3.1440 0
M  V30 610 O -0.8520 -4.1680 4.8560 0
M  V30 611 O -0.8520 -6.1680 -1.1440 0
M  V30 612 O -0.8520 -6.1680 -0.1440 0
M  V30 613 O -0.8520 -6.1680 0.8560 0
M  V30 614 O -0.8520 -3.1680 0.8560 0
M  V30 615 O -0.8520 -3.1680 1.8560 0
M  V30 616 O -0.8520 -3.1680 2.8560 0
M  V30 617 O -0.8520 -3.1680 3.8560 0
M  V30 618 O -0.8520 -3.1680 4.8560 0
M  V30 619 O -0.8520 -5.1680 -0.1440 0
M  V30 620 O -0.8520 -5.1680 0.8560 0
M  V30 621 O -0.8520 -5.1680 1.8560 0
M  V30 622 O -0.8520 -2.1680 1.8560 0
M  V30 623 O -0.8520 -2.1680 2.8560 0
M  V30 624 O -0.8520 -2.1680 3.8560 0
M  V30 625 O -0.8520 -2.1680 4.8560 0
M  V30 626 O -0.8520 -1.1680 -3.1440 0
M  V30 627 O -0.8520 -4.1680 -0.1440 0
M  V30 628 O -0.8520 -4.1680 0.8560 0
M  V30 629 O -0.8520 -0.1680 1.8560 0
M  V30 630 O -0.8520 -0.1680 0.8560 0
M  V30 631 O -0.8520 6.8320 0.8560 0
M  V30 632 O -0.8520 5.8320 -0.1440 0
M  V30 633 O -0.8520 5.8320 0.8560 0
M  V30 634 O -0.8520 5.8320 1.8560 0
M  V30 635 O -0.8520 5.8320 2.8560 0
M  V30 636 O -0.8520 5.8320 3.8560 0
M  V30 637 O -0.8520 5.8320 4.8560 0
M  V30 638 O -0.8520 6.8320 -0.1440 0
M  V30 639 O -0.8520 2.8320 0.8560 0
M  V30 640 O -0.8520 -0.1680 2.8560 0
M  V30 641 O -0.8520 2.8320 1.8560 0
M  V30 642 O -0.8520 -0.1680 3.8560 0
M  V30 643 O -0.8520 2.8320 2.8560 0
M  V30 644 O -0.8520 -0.1680 4.8560 0
M  V30 645 O -0.8520 2.8320 3.8560 0
M  V30 646 O -0.8520 0.8320 -3.1440 0
M  V30 647 O -0.8520 2.8320 4.8560 0
M  V30 648 O -0.8520 0.8320 -2.1440 0
M  V30 649 O -0.8520 0.8320 -1.1440 0
M  V30 650 O -0.8520 3.8320 -2.1440 0
M  V30 651 O -0.8520 0.8320 -0.1440 0
M  V30 652 O -0.8520 3.8320 -1.1440 0
M  V30 653 O -0.8520 0.8320 0.8560 0
M  V30 654 O -0.8520 3.8320 -0.1440 0
M  V30 655 O -0.8520 0.8320 1.8560 0
M  V30 656 O -0.8520 3.8320 0.8560 0
M  V30 657 O -0.8520 0.8320 2.8560 0
M  V30 658 O -0.8520 3.8320 1.8560 0
M  V30 659 O -0.8520 0.8320 3.8560 0
M  V30 660 O -0.8520 3.8320 2.8560 0
M  V30 661 O -0.8520 0.8320 4.8560 0
M  V30 662 O -0.8520 3.8320 3.8560 0
M  V30 663 O -0.8520 1.8320 -2.1440 0
M  V30 664 O -0.8520 1.8320 -1.1440 0
M  V30 665 O -0.8520 4.8320 -2.1440 0
M  V30 666 O -0.8520 1.8320 -0.1440 0
M  V30 667 O -0.8520 4.8320 -1.1440 0
M  V30 668 O -0.8520 1.8320 0.8560 0
M  V30 669 O -0.8520 4.8320 -0.1440 0
M  V30 670 O -0.8520 1.8320 1.8560 0
M  V30 671 O -0.8520 4.8320 0.8560 0
M  V30 672 O -0.8520 1.8320 2.8560 0
M  V30 673 O -0.8520 4.8320 1.8560 0
M  V30 674 O -0.8520 1.8320 3.8560 0
M  V30 675 O -0.8520 4.8320 2.8560 0
M  V30 676 O -0.8520 1.8320 4.8560 0
M  V30 677 O -0.8520 4.8320 3.8560 0
M  V30 678 O -0.8520 4.8320 4.8560 0
M  V30 679 O -0.8520 2.8320 -2.1440 0
M  V30 680 O -0.8520 2.8320 -1.1440 0
M  V30 681 O -0.8520 2.8320 -0.1440 0
M  V30 682 O -0.8520 6.8320 1.8560 0
M  V30 683 O 0.1480 -7.1680 0.8560 0
M  V30 684 O -0.8520 6.8320 2.8560 0
M  V30 685 O 0.1480 -7.1680 1.8560 0
M  V30 686 O -0.8520 6.8320 3.8560 0
M  V30 687 O -0.8520 6.8320 4.8560 0
M  V30 688 O 0.1480 -6.1680 -3.1440 0
M  V30 689 O 0.1480 -6.1680 -2.1440 0
M  V30 690 O -0.8520 7.8320 -0.1440 0
M  V30 691 O -0.8520 7.8320 0.8560 0
M  V30 692 O 0.1480 -6.1680 -0.1440 0
M  V30 693 O -0.8520 7.8320 1.8560 0
M  V30 694 O 0.1480 -6.1680 0.8560 0
M  V30 695 O -0.8520 7.8320 2.8560 0
M  V30 696 O -0.8520 7.8320 3.8560 0
M  V30 697 O -0.8520 7.8320 4.8560 0
M  V30 698 O 0.1480 -8.1680 -3.1440 0
M  V30 699 O 0.1480 -8.1680 -2.1440 0
M  V30 700 O 0.1480 -7.1680 -3.1440 0
M  V30 701 O 0.1480 -4.1680 -0.1440 0
M  V30 702 O 0.1480 -4.1680 0.8560 0
M  V30 703 O 0.1480 -4.1680 1.8560 0
M  V30 704 O 0.1480 -4.1680 2.8560 0
M  V30 705 O 0.1480 -4.1680 3.8560 0
M  V30 706 O 0.1480 -4.1680 4.8560 0
M  V30 707 O 0.1480 -6.1680 1.8560 0
M  V30 708 O 0.1480 -5.1680 -3.1440 0
M  V30 709 O 0.1480 -5.1680 -1.1440 0
M  V30 710 O 0.1480 -5.1680 -0.1440 0
M  V30 711 O 0.1480 -5.1680 0.8560 0
M  V30 712 O 0.1480 -5.1680 1.8560 0
M  V30 713 O 0.1480 -5.1680 2.8560 0
M  V30 714 O 0.1480 -5.1680 3.8560 0
M  V30 715 O 0.1480 -5.1680 4.8560 0
M  V30 716 O 0.1480 3.8320 -1.1440 0
M  V30 717 O 0.1480 2.8320 -1.1440 0
M  V30 718 O 0.1480 2.8320 -0.1440 0
M  V30 719 O 0.1480 2.8320 0.8560 0
M  V30 720 O 0.1480 2.8320 1.8560 0
M  V30 721 O 0.1480 2.8320 2.8560 0
M  V30 722 O 0.1480 2.8320 3.8560 0
M  V30 723 O 0.1480 2.8320 4.8560 0
M  V30 724 O 0.1480 3.8320 -2.1440 0
M  V30 725 O 0.1480 -3.1680 0.8560 0
M  V30 726 O 0.1480 -0.1680 -0.1440 0
M  V30 727 O 0.1480 -3.1680 1.8560 0
M  V30 728 O 0.1480 -0.1680 0.8560 0
M  V30 729 O 0.1480 -3.1680 2.8560 0
M  V30 730 O 0.1480 -0.1680 1.8560 0
M  V30 731 O 0.1480 -3.1680 3.8560 0
M  V30 732 O 0.1480 -0.1680 2.8560 0
M  V30 733 O 0.1480 -3.1680 4.8560 0
M  V30 734 O 0.1480 -0.1680 3.8560 0
M  V30 735 O 0.1480 -0.1680 4.8560 0
M  V30 736 O 0.1480 0.8320 -3.1440 0
M  V30 737 O 0.1480 0.8320 -1.1440 0
M  V30 738 O 0.1480 0.8320 -0.1440 0
M  V30 739 O 0.1480 -2.1680 1.8560 0
M  V30 740 O 0.1480 0.8320 0.8560 0
M  V30 741 O 0.1480 -2.1680 2.8560 0
M  V30 742 O 0.1480 0.8320 1.8560 0
M  V30 743 O 0.1480 -2.1680 3.8560 0
M  V30 744 O 0.1480 0.8320 2.8560 0
M  V30 745 O 0.1480 -2.1680 4.8560 0
M  V30 746 O 0.1480 0.8320 3.8560 0
M  V30 747 O 0.1480 -1.1680 -3.1440 0
M  V30 748 O 0.1480 0.8320 4.8560 0
M  V30 749 O 0.1480 1.8320 -1.1440 0
M  V30 750 O 0.1480 -1.1680 0.8560 0
M  V30 751 O 0.1480 1.8320 -0.1440 0
M  V30 752 O 0.1480 -1.1680 1.8560 0
M  V30 753 O 0.1480 1.8320 0.8560 0
M  V30 754 O 0.1480 -1.1680 2.8560 0
M  V30 755 O 0.1480 1.8320 1.8560 0
M  V30 756 O 0.1480 -1.1680 3.8560 0
M  V30 757 O 0.1480 1.8320 2.8560 0
M  V30 758 O 0.1480 -1.1680 4.8560 0
M  V30 759 O 0.1480 1.8320 3.8560 0
M  V30 760 O 0.1480 1.8320 4.8560 0
M  V30 761 O 0.1480 3.8320 -0.1440 0
M  V30 762 O 0.1480 3.8320 0.8560 0
M  V30 763 O 0.1480 3.8320 1.8560 0
M  V30 764 O 0.1480 3.8320 2.8560 0
M  V30 765 O 0.1480 3.8320 3.8560 0
M  V30 766 O 0.1480 3.8320 4.8560 0
M  V30 767 O 0.1480 4.8320 -2.1440 0
M  V30 768 O 0.1480 4.8320 -1.1440 0
M  V30 769 O 0.1480 4.8320 -0.1440 0
M  V30 770 O 0.1480 4.8320 0.8560 0
M  V30 771 O 0.1480 4.8320 1.8560 0
M  V30 772 O 1.1480 -6.1680 -1.1440 0
M  V30 773 O 1.1480 -6.1680 -0.1440 0
M  V30 774 O 1.1480 -6.1680 0.8560 0
M  V30 775 O 1.1480 -3.1680 -0.1440 0
M  V30 776 O 1.1480 -6.1680 1.8560 0
M  V30 777 O 1.1480 -3.1680 0.8560 0
M  V30 778 O 1.1480 -6.1680 2.8560 0
M  V30 779 O 1.1480 -3.1680 1.8560 0
M  V30 780 O 1.1480 -6.1680 3.8560 0
M  V30 781 O 1.1480 -3.1680 2.8560 0
M  V30 782 O 1.1480 -6.1680 4.8560 0
M  V30 783 O 1.1480 -3.1680 3.8560 0
M  V30 784 O 1.1480 -5.1680 -3.1440 0
M  V30 785 O 1.1480 -3.1680 4.8560 0
M  V30 786 O 1.1480 -5.1680 -2.1440 0
M  V30 787 O 1.1480 -5.1680 -1.1440 0
M  V30 788 O 1.1480 -5.1680 -0.1440 0
M  V30 789 O 1.1480 -5.1680 0.8560 0
M  V30 790 O 1.1480 -5.1680 1.8560 0
M  V30 791 O 1.1480 -2.1680 0.8560 0
M  V30 792 O 1.1480 -5.1680 2.8560 0
M  V30 793 O 1.1480 -2.1680 1.8560 0
M  V30 794 O 1.1480 -5.1680 3.8560 0
M  V30 795 O 1.1480 -2.1680 2.8560 0
M  V30 796 O 1.1480 -5.1680 4.8560 0
M  V30 797 O 1.1480 -2.1680 3.8560 0
M  V30 798 O 1.1480 -2.1680 4.8560 0
M  V30 799 O 1.1480 -1.1680 -3.1440 0
M  V30 800 O 1.1480 -4.1680 -0.1440 0
M  V30 801 O 1.1480 -1.1680 -1.1440 0
M  V30 802 O 1.1480 -4.1680 0.8560 0
M  V30 803 O 1.1480 -1.1680 -0.1440 0
M  V30 804 O 1.1480 -4.1680 1.8560 0
M  V30 805 O 1.1480 -1.1680 0.8560 0
M  V30 806 O 1.1480 -4.1680 2.8560 0
M  V30 807 O 1.1480 -1.1680 1.8560 0
M  V30 808 O 1.1480 -4.1680 3.8560 0
M  V30 809 O 1.1480 -1.1680 2.8560 0
M  V30 810 O 1.1480 -4.1680 4.8560 0
M  V30 811 O 1.1480 -6.1680 -2.1440 0
M  V30 812 O 1.1480 -7.1680 -3.1440 0
M  V30 813 O 1.1480 -7.1680 0.8560 0
M  V30 814 O 1.1480 -7.1680 1.8560 0
M  V30 815 O 1.1480 -7.1680 2.8560 0
M  V30 816 O 1.1480 -7.1680 4.8560 0
M  V30 817 O 1.1480 -6.1680 -3.1440 0
M  V30 818 O 0.1480 6.8320 -1.1440 0
M  V30 819 O 0.1480 6.8320 -0.1440 0
M  V30 820 O 0.1480 6.8320 0.8560 0
M  V30 821 O 0.1480 6.8320 1.8560 0
M  V30 822 O 0.1480 6.8320 2.8560 0
M  V30 823 O 0.1480 6.8320 3.8560 0
M  V30 824 O 0.1480 6.8320 4.8560 0
M  V30 825 O 0.1480 7.8320 -0.1440 0
M  V30 826 O 0.1480 7.8320 0.8560 0
M  V30 827 O 0.1480 4.8320 2.8560 0
M  V30 828 O 0.1480 7.8320 1.8560 0
M  V30 829 O 0.1480 4.8320 3.8560 0
M  V30 830 O 0.1480 7.8320 2.8560 0
M  V30 831 O 0.1480 4.8320 4.8560 0
M  V30 832 O 0.1480 7.8320 3.8560 0
M  V30 833 O 0.1480 7.8320 4.8560 0
M  V30 834 O 0.1480 5.8320 -2.1440 0
M  V30 835 O 1.1480 -8.1680 -3.1440 0
M  V30 836 O 0.1480 5.8320 -1.1440 0
M  V30 837 O 0.1480 5.8320 -0.1440 0
M  V30 838 O 0.1480 5.8320 0.8560 0
M  V30 839 O 0.1480 5.8320 1.8560 0
M  V30 840 O 0.1480 5.8320 2.8560 0
M  V30 841 O 1.1480 -8.1680 1.8560 0
M  V30 842 O 0.1480 5.8320 3.8560 0
M  V30 843 O 1.1480 -8.1680 2.8560 0
M  V30 844 O 0.1480 5.8320 4.8560 0
M  V30 845 O 0.1480 6.8320 -3.1440 0
M  V30 846 O 1.1480 -8.1680 4.8560 0
M  V30 847 O 1.1480 0.8320 -3.1440 0
M  V30 848 O 1.1480 -1.1680 4.8560 0
M  V30 849 O 1.1480 -0.1680 -3.1440 0
M  V30 850 O 1.1480 -0.1680 -1.1440 0
M  V30 851 O 1.1480 -0.1680 -0.1440 0
M  V30 852 O 1.1480 -0.1680 0.8560 0
M  V30 853 O 1.1480 -0.1680 1.8560 0
M  V30 854 O 1.1480 -0.1680 2.8560 0
M  V30 855 O 1.1480 -0.1680 3.8560 0
M  V30 856 O 1.1480 -0.1680 4.8560 0
M  V30 857 O 1.1480 -1.1680 3.8560 0
M  V30 858 O 1.1480 6.8320 4.8560 0
M  V30 859 O 1.1480 5.8320 3.8560 0
M  V30 860 O 1.1480 5.8320 4.8560 0
M  V30 861 O 1.1480 6.8320 -1.1440 0
M  V30 862 O 1.1480 6.8320 -0.1440 0
M  V30 863 O 1.1480 6.8320 0.8560 0
M  V30 864 O 1.1480 6.8320 1.8560 0
M  V30 865 O 1.1480 6.8320 2.8560 0
M  V30 866 O 1.1480 6.8320 3.8560 0
M  V30 867 O 1.1480 2.8320 4.8560 0
M  V30 868 O 1.1480 0.8320 -1.1440 0
M  V30 869 O 1.1480 3.8320 -2.1440 0
M  V30 870 O 1.1480 0.8320 -0.1440 0
M  V30 871 O 1.1480 3.8320 -1.1440 0
M  V30 872 O 1.1480 0.8320 0.8560 0
M  V30 873 O 1.1480 3.8320 -0.1440 0
M  V30 874 O 1.1480 0.8320 1.8560 0
M  V30 875 O 1.1480 3.8320 0.8560 0
M  V30 876 O 1.1480 0.8320 2.8560 0
M  V30 877 O 1.1480 3.8320 1.8560 0
M  V30 878 O 1.1480 0.8320 3.8560 0
M  V30 879 O 1.1480 3.8320 2.8560 0
M  V30 880 O 1.1480 0.8320 4.8560 0
M  V30 881 O 1.1480 3.8320 3.8560 0
M  V30 882 O 1.1480 3.8320 4.8560 0
M  V30 883 O 1.1480 1.8320 -0.1440 0
M  V30 884 O 1.1480 4.8320 -1.1440 0
M  V30 885 O 1.1480 1.8320 0.8560 0
M  V30 886 O 1.1480 4.8320 -0.1440 0
M  V30 887 O 1.1480 1.8320 1.8560 0
M  V30 888 O 1.1480 4.8320 0.8560 0
M  V30 889 O 1.1480 1.8320 2.8560 0
M  V30 890 O 1.1480 4.8320 1.8560 0
M  V30 891 O 1.1480 1.8320 3.8560 0
M  V30 892 O 1.1480 4.8320 2.8560 0
M  V30 893 O 1.1480 1.8320 4.8560 0
M  V30 894 O 1.1480 4.8320 3.8560 0
M  V30 895 O 1.1480 4.8320 4.8560 0
M  V30 896 O 1.1480 2.8320 -1.1440 0
M  V30 897 O 1.1480 5.8320 -2.1440 0
M  V30 898 O 1.1480 2.8320 -0.1440 0
M  V30 899 O 1.1480 5.8320 -1.1440 0
M  V30 900 O 1.1480 2.8320 0.8560 0
M  V30 901 O 1.1480 5.8320 -0.1440 0
M  V30 902 O 1.1480 2.8320 1.8560 0
M  V30 903 O 1.1480 5.8320 0.8560 0
M  V30 904 O 1.1480 2.8320 2.8560 0
M  V30 905 O 1.1480 5.8320 1.8560 0
M  V30 906 O 1.1480 2.8320 3.8560 0
M  V30 907 O 1.1480 5.8320 2.8560 0
M  V30 908 O 2.1480 -7.1680 3.8560 0
M  V30 909 O 1.1480 7.8320 -1.1440 0
M  V30 910 O 1.1480 7.8320 -0.1440 0
M  V30 911 O 1.1480 7.8320 0.8560 0
M  V30 912 O 1.1480 7.8320 1.8560 0
M  V30 913 O 1.1480 7.8320 2.8560 0
M  V30 914 O 1.1480 7.8320 3.8560 0
M  V30 915 O 1.1480 7.8320 4.8560 0
M  V30 916 O 2.1480 -8.1680 2.8560 0
M  V30 917 O 2.1480 -8.1680 3.8560 0
M  V30 918 O 2.1480 -8.1680 4.8560 0
M  V30 919 O 2.1480 -7.1680 -3.1440 0
M  V30 920 O 2.1480 -7.1680 2.8560 0
M  V30 921 O 2.1480 -3.1680 3.8560 0
M  V30 922 O 2.1480 -4.1680 2.8560 0
M  V30 923 O 2.1480 -4.1680 3.8560 0
M  V30 924 O 2.1480 -4.1680 4.8560 0
M  V30 925 O 2.1480 -3.1680 -0.1440 0
M  V30 926 O 2.1480 -3.1680 0.8560 0
M  V30 927 O 2.1480 -3.1680 1.8560 0
M  V30 928 O 2.1480 -3.1680 2.8560 0
M  V30 929 O 2.1480 -7.1680 4.8560 0
M  V30 930 O 2.1480 -6.1680 -3.1440 0
M  V30 931 O 2.1480 -6.1680 -0.1440 0
M  V30 932 O 2.1480 -6.1680 0.8560 0
M  V30 933 O 2.1480 -6.1680 1.8560 0
M  V30 934 O 2.1480 -6.1680 2.8560 0
M  V30 935 O 2.1480 -6.1680 3.8560 0
M  V30 936 O 2.1480 -6.1680 4.8560 0
M  V30 937 O 2.1480 -5.1680 -2.1440 0
M  V30 938 O 2.1480 -5.1680 -0.1440 0
M  V30 939 O 2.1480 -5.1680 0.8560 0
M  V30 940 O 2.1480 -5.1680 1.8560 0
M  V30 941 O 2.1480 -5.1680 2.8560 0
M  V30 942 O 2.1480 -5.1680 3.8560 0
M  V30 943 O 2.1480 -5.1680 4.8560 0
M  V30 944 O 2.1480 -4.1680 -3.1440 0
M  V30 945 O 2.1480 -4.1680 0.8560 0
M  V30 946 O 2.1480 -4.1680 1.8560 0
M  V30 947 O 2.1480 3.8320 2.8560 0
M  V30 948 O 2.1480 2.8320 1.8560 0
M  V30 949 O 2.1480 2.8320 2.8560 0
M  V30 950 O 2.1480 2.8320 3.8560 0
M  V30 951 O 2.1480 2.8320 4.8560 0
M  V30 952 O 2.1480 3.8320 -2.1440 0
M  V30 953 O 2.1480 3.8320 -1.1440 0
M  V30 954 O 2.1480 3.8320 -0.1440 0
M  V30 955 O 2.1480 3.8320 0.8560 0
M  V30 956 O 2.1480 3.8320 1.8560 0
M  V30 957 O 2.1480 -0.1680 2.8560 0
M  V30 958 O 2.1480 -3.1680 4.8560 0
M  V30 959 O 2.1480 -0.1680 3.8560 0
M  V30 960 O 2.1480 -0.1680 4.8560 0
M  V30 961 O 2.1480 0.8320 -3.1440 0
M  V30 962 O 2.1480 0.8320 -2.1440 0
M  V30 963 O 2.1480 0.8320 -1.1440 0
M  V30 964 O 2.1480 -2.1680 0.8560 0
M  V30 965 O 2.1480 0.8320 -0.1440 0
M  V30 966 O 2.1480 -2.1680 1.8560 0
M  V30 967 O 2.1480 0.8320 0.8560 0
M  V30 968 O 2.1480 -2.1680 2.8560 0
M  V30 969 O 2.1480 0.8320 1.8560 0
M  V30 970 O 2.1480 -2.1680 3.8560 0
M  V30 971 O 2.1480 0.8320 2.8560 0
M  V30 972 O 2.1480 -2.1680 4.8560 0
M  V30 973 O 2.1480 0.8320 3.8560 0
M  V30 974 O 2.1480 0.8320 4.8560 0
M  V30 975 O 2.1480 1.8320 -3.1440 0
M  V30 976 O 2.1480 -1.1680 -0.1440 0
M  V30 977 O 2.1480 1.8320 -1.1440 0
M  V30 978 O 2.1480 1.8320 -0.1440 0
M  V30 979 O 2.1480 -1.1680 1.8560 0
M  V30 980 O 2.1480 1.8320 0.8560 0
M  V30 981 O 2.1480 -1.1680 2.8560 0
M  V30 982 O 2.1480 1.8320 1.8560 0
M  V30 983 O 2.1480 -1.1680 3.8560 0
M  V30 984 O 2.1480 1.8320 2.8560 0
M  V30 985 O 2.1480 -1.1680 4.8560 0
M  V30 986 O 2.1480 1.8320 3.8560 0
M  V30 987 O 2.1480 -0.1680 -3.1440 0
M  V30 988 O 2.1480 1.8320 4.8560 0
M  V30 989 O 2.1480 2.8320 -3.1440 0
M  V30 990 O 2.1480 -0.1680 -1.1440 0
M  V30 991 O 2.1480 2.8320 -2.1440 0
M  V30 992 O 2.1480 -0.1680 -0.1440 0
M  V30 993 O 2.1480 2.8320 -1.1440 0
M  V30 994 O 2.1480 -0.1680 0.8560 0
M  V30 995 O 2.1480 2.8320 -0.1440 0
M  V30 996 O 2.1480 -0.1680 1.8560 0
M  V30 997 O 2.1480 2.8320 0.8560 0
M  V30 998 O 2.1480 3.8320 3.8560 0
M  V30 999 O 2.1480 3.8320 4.8560 0
M  V30 1000 O 3.1480 -6.1680 1.8560 0
M  V30 1001 O 3.1480 -7.1680 2.8560 0
M  V30 1002 O 3.1480 -7.1680 3.8560 0
M  V30 1003 O 3.1480 -7.1680 4.8560 0
M  V30 1004 O 3.1480 -6.1680 -1.1440 0
M  V30 1005 O 3.1480 -6.1680 -0.1440 0
M  V30 1006 O 2.1480 6.8320 1.8560 0
M  V30 1007 O 2.1480 6.8320 2.8560 0
M  V30 1008 O 2.1480 6.8320 3.8560 0
M  V30 1009 O 2.1480 6.8320 4.8560 0
M  V30 1010 O 2.1480 4.8320 -2.1440 0
M  V30 1011 O 2.1480 4.8320 -1.1440 0
M  V30 1012 O 2.1480 4.8320 -0.1440 0
M  V30 1013 O 2.1480 4.8320 0.8560 0
M  V30 1014 O 2.1480 7.8320 -0.1440 0
M  V30 1015 O 2.1480 4.8320 1.8560 0
M  V30 1016 O 2.1480 7.8320 0.8560 0
M  V30 1017 O 2.1480 4.8320 2.8560 0
M  V30 1018 O 2.1480 7.8320 1.8560 0
M  V30 1019 O 2.1480 4.8320 3.8560 0
M  V30 1020 O 2.1480 7.8320 2.8560 0
M  V30 1021 O 2.1480 4.8320 4.8560 0
M  V30 1022 O 2.1480 7.8320 3.8560 0
M  V30 1023 O 2.1480 7.8320 4.8560 0
M  V30 1024 O 2.1480 5.8320 -1.1440 0
M  V30 1025 O 2.1480 5.8320 -0.1440 0
M  V30 1026 O 2.1480 5.8320 0.8560 0
M  V30 1027 O 2.1480 5.8320 1.8560 0
M  V30 1028 O 2.1480 5.8320 2.8560 0
M  V30 1029 O 2.1480 5.8320 3.8560 0
M  V30 1030 O 2.1480 5.8320 4.8560 0
M  V30 1031 O 3.1480 -8.1680 3.8560 0
M  V30 1032 O 3.1480 -8.1680 4.8560 0
M  V30 1033 O 2.1480 6.8320 -0.1440 0
M  V30 1034 O 2.1480 6.8320 0.8560 0
M  V30 1035 O 3.1480 -3.1680 0.8560 0
M  V30 1036 O 3.1480 -6.1680 2.8560 0
M  V30 1037 O 3.1480 -6.1680 3.8560 0
M  V30 1038 O 3.1480 -3.1680 2.8560 0
M  V30 1039 O 3.1480 -6.1680 4.8560 0
M  V30 1040 O 3.1480 -3.1680 3.8560 0
M  V30 1041 O 3.1480 -3.1680 4.8560 0
M  V30 1042 O 3.1480 -5.1680 -1.1440 0
M  V30 1043 O 3.1480 -5.1680 -0.1440 0
M  V30 1044 O 3.1480 -5.1680 0.8560 0
M  V30 1045 O 3.1480 -5.1680 1.8560 0
M  V30 1046 O 3.1480 -5.1680 2.8560 0
M  V30 1047 O 3.1480 -2.1680 1.8560 0
M  V30 1048 O 3.1480 -5.1680 3.8560 0
M  V30 1049 O 3.1480 -2.1680 2.8560 0
M  V30 1050 O 3.1480 -5.1680 4.8560 0
M  V30 1051 O 3.1480 -2.1680 3.8560 0
M  V30 1052 O 3.1480 -2.1680 4.8560 0
M  V30 1053 O 3.1480 -4.1680 -0.1440 0
M  V30 1054 O 3.1480 -4.1680 0.8560 0
M  V30 1055 O 3.1480 -4.1680 1.8560 0
M  V30 1056 O 3.1480 -4.1680 2.8560 0
M  V30 1057 O 3.1480 -4.1680 3.8560 0
M  V30 1058 O 3.1480 0.8320 0.8560 0
M  V30 1059 O 3.1480 -0.1680 -0.1440 0
M  V30 1060 O 3.1480 -0.1680 1.8560 0
M  V30 1061 O 3.1480 -0.1680 2.8560 0
M  V30 1062 O 3.1480 -0.1680 3.8560 0
M  V30 1063 O 3.1480 -0.1680 4.8560 0
M  V30 1064 O 3.1480 0.8320 -0.1440 0
M  V30 1065 O 3.1480 -1.1680 2.8560 0
M  V30 1066 O 3.1480 -1.1680 3.8560 0
M  V30 1067 O 3.1480 -1.1680 4.8560 0
M  V30 1068 O 3.1480 7.8320 -0.1440 0
M  V30 1069 O 3.1480 6.8320 -1.1440 0
M  V30 1070 O 3.1480 6.8320 -0.1440 0
M  V30 1071 O 3.1480 6.8320 0.8560 0
M  V30 1072 O 3.1480 6.8320 1.8560 0
M  V30 1073 O 3.1480 6.8320 2.8560 0
M  V30 1074 O 3.1480 6.8320 3.8560 0
M  V30 1075 O 3.1480 6.8320 4.8560 0
M  V30 1076 O 3.1480 7.8320 -1.1440 0
M  V30 1077 O 3.1480 3.8320 -0.1440 0
M  V30 1078 O 3.1480 0.8320 1.8560 0
M  V30 1079 O 3.1480 3.8320 0.8560 0
M  V30 1080 O 3.1480 0.8320 2.8560 0
M  V30 1081 O 3.1480 3.8320 1.8560 0
M  V30 1082 O 3.1480 0.8320 3.8560 0
M  V30 1083 O 3.1480 3.8320 2.8560 0
M  V30 1084 O 3.1480 0.8320 4.8560 0
M  V30 1085 O 3.1480 3.8320 3.8560 0
M  V30 1086 O 3.1480 1.8320 -3.1440 0
M  V30 1087 O 3.1480 3.8320 4.8560 0
M  V30 1088 O 3.1480 1.8320 -2.1440 0
M  V30 1089 O 3.1480 4.8320 -3.1440 0
M  V30 1090 O 3.1480 1.8320 -1.1440 0
M  V30 1091 O 3.1480 4.8320 -2.1440 0
M  V30 1092 O 3.1480 1.8320 -0.1440 0
M  V30 1093 O 3.1480 4.8320 -1.1440 0
M  V30 1094 O 3.1480 1.8320 0.8560 0
M  V30 1095 O 3.1480 4.8320 -0.1440 0
M  V30 1096 O 3.1480 1.8320 1.8560 0
M  V30 1097 O 3.1480 4.8320 0.8560 0
M  V30 1098 O 3.1480 1.8320 2.8560 0
M  V30 1099 O 3.1480 4.8320 1.8560 0
M  V30 1100 O 3.1480 1.8320 3.8560 0
M  V30 1101 O 3.1480 4.8320 2.8560 0
M  V30 1102 O 3.1480 1.8320 4.8560 0
M  V30 1103 O 3.1480 4.8320 3.8560 0
M  V30 1104 O 3.1480 2.8320 -3.1440 0
M  V30 1105 O 3.1480 4.8320 4.8560 0
M  V30 1106 O 3.1480 2.8320 -2.1440 0
M  V30 1107 O 3.1480 2.8320 -1.1440 0
M  V30 1108 O 3.1480 5.8320 -2.1440 0
M  V30 1109 O 3.1480 2.8320 -0.1440 0
M  V30 1110 O 3.1480 5.8320 -1.1440 0
M  V30 1111 O 3.1480 2.8320 0.8560 0
M  V30 1112 O 3.1480 5.8320 -0.1440 0
M  V30 1113 O 3.1480 2.8320 1.8560 0
M  V30 1114 O 3.1480 5.8320 0.8560 0
M  V30 1115 O 3.1480 2.8320 2.8560 0
M  V30 1116 O 3.1480 5.8320 1.8560 0
M  V30 1117 O 3.1480 2.8320 3.8560 0
M  V30 1118 O 3.1480 5.8320 2.8560 0
M  V30 1119 O 3.1480 2.8320 4.8560 0
M  V30 1120 O 3.1480 5.8320 3.8560 0
M  V30 1121 O 3.1480 3.8320 -3.1440 0
M  V30 1122 O 3.1480 5.8320 4.8560 0
M  V30 1123 O 3.1480 3.8320 -2.1440 0
M  V30 1124 O 3.1480 3.8320 -1.1440 0
M  V30 1125 O 3.1480 7.8320 0.8560 0
M  V30 1126 O 3.1480 7.8320 1.8560 0
M  V30 1127 O 3.1480 7.8320 2.8560 0
M  V30 1128 O 3.1480 7.8320 3.8560 0
M  V30 1129 O 3.1480 7.8320 4.8560 0
M  V30 1130 O 4.1480 -8.1680 2.8560 0
M  V30 1131 O 4.1480 -8.1680 3.8560 0
M  V30 1132 O 4.1480 -8.1680 4.8560 0
M  V30 1133 O 4.1480 -6.1680 1.8560 0
M  V30 1134 O 4.1480 -6.1680 2.8560 0
M  V30 1135 O 4.1480 -6.1680 3.8560 0
M  V30 1136 O 4.1480 -6.1680 4.8560 0
M  V30 1137 O 4.1480 -5.1680 -1.1440 0
M  V30 1138 O 4.1480 -5.1680 -0.1440 0
M  V30 1139 O 4.1480 -5.1680 0.8560 0
M  V30 1140 O 4.1480 -5.1680 1.8560 0
M  V30 1141 O 4.1480 -5.1680 2.8560 0
M  V30 1142 O 4.1480 -4.1680 -3.1440 0
M  V30 1143 O 4.1480 -4.1680 -1.1440 0
M  V30 1144 O 4.1480 -4.1680 -0.1440 0
M  V30 1145 O 4.1480 -7.1680 3.8560 0
M  V30 1146 O 4.1480 -7.1680 4.8560 0
M  V30 1147 O 4.1480 3.8320 -2.1440 0
M  V30 1148 O 4.1480 3.8320 -1.1440 0
M  V30 1149 O 4.1480 0.8320 -0.1440 0
M  V30 1150 O 4.1480 0.8320 0.8560 0
M  V30 1151 O 4.1480 0.8320 1.8560 0
M  V30 1152 O 4.1480 0.8320 2.8560 0
M  V30 1153 O 4.1480 -2.1680 4.8560 0
M  V30 1154 O 4.1480 0.8320 3.8560 0
M  V30 1155 O 4.1480 0.8320 4.8560 0
M  V30 1156 O 4.1480 1.8320 -3.1440 0
M  V30 1157 O 4.1480 1.8320 -1.1440 0
M  V30 1158 O 4.1480 1.8320 -0.1440 0
M  V30 1159 O 4.1480 1.8320 0.8560 0
M  V30 1160 O 4.1480 -1.1680 2.8560 0
M  V30 1161 O 4.1480 1.8320 1.8560 0
M  V30 1162 O 4.1480 -1.1680 3.8560 0
M  V30 1163 O 4.1480 1.8320 2.8560 0
M  V30 1164 O 4.1480 -1.1680 4.8560 0
M  V30 1165 O 4.1480 1.8320 3.8560 0
M  V30 1166 O 4.1480 1.8320 4.8560 0
M  V30 1167 O 4.1480 2.8320 -3.1440 0
M  V30 1168 O 4.1480 2.8320 -2.1440 0
M  V30 1169 O 4.1480 2.8320 -1.1440 0
M  V30 1170 O 4.1480 -0.1680 0.8560 0
M  V30 1171 O 4.1480 2.8320 -0.1440 0
M  V30 1172 O 4.1480 -0.1680 1.8560 0
M  V30 1173 O 4.1480 2.8320 0.8560 0
M  V30 1174 O 4.1480 -0.1680 2.8560 0
M  V30 1175 O 4.1480 2.8320 1.8560 0
M  V30 1176 O 4.1480 -0.1680 3.8560 0
M  V30 1177 O 4.1480 2.8320 2.8560 0
M  V30 1178 O 4.1480 -0.1680 4.8560 0
M  V30 1179 O 4.1480 2.8320 3.8560 0
M  V30 1180 O 4.1480 2.8320 4.8560 0
M  V30 1181 O 4.1480 4.8320 -2.1440 0
M  V30 1182 O 4.1480 3.8320 -0.1440 0
M  V30 1183 O 4.1480 3.8320 0.8560 0
M  V30 1184 O 4.1480 3.8320 1.8560 0
M  V30 1185 O 4.1480 3.8320 2.8560 0
M  V30 1186 O 4.1480 3.8320 3.8560 0
M  V30 1187 O 4.1480 3.8320 4.8560 0
M  V30 1188 O 4.1480 4.8320 -3.1440 0
M  V30 1189 O 5.1480 -7.1680 4.8560 0
M  V30 1190 O 5.1480 -6.1680 3.8560 0
M  V30 1191 O 4.1480 4.8320 -1.1440 0
M  V30 1192 O 4.1480 4.8320 -0.1440 0
M  V30 1193 O 4.1480 4.8320 0.8560 0
M  V30 1194 O 4.1480 7.8320 -0.1440 0
M  V30 1195 O 4.1480 4.8320 1.8560 0
M  V30 1196 O 4.1480 7.8320 0.8560 0
M  V30 1197 O 4.1480 4.8320 2.8560 0
M  V30 1198 O 4.1480 7.8320 1.8560 0
M  V30 1199 O 4.1480 4.8320 3.8560 0
M  V30 1200 O 4.1480 7.8320 2.8560 0
M  V30 1201 O 4.1480 4.8320 4.8560 0
M  V30 1202 O 4.1480 7.8320 3.8560 0
M  V30 1203 O 4.1480 5.8320 -3.1440 0
M  V30 1204 O 4.1480 7.8320 4.8560 0
M  V30 1205 O 4.1480 5.8320 -2.1440 0
M  V30 1206 O 4.1480 5.8320 -1.1440 0
M  V30 1207 O 5.1480 -8.1680 -2.1440 0
M  V30 1208 O 4.1480 5.8320 -0.1440 0
M  V30 1209 O 4.1480 5.8320 0.8560 0
M  V30 1210 O 4.1480 5.8320 1.8560 0
M  V30 1211 O 4.1480 5.8320 2.8560 0
M  V30 1212 O 4.1480 5.8320 3.8560 0
M  V30 1213 O 4.1480 5.8320 4.8560 0
M  V30 1214 O 5.1480 -8.1680 3.8560 0
M  V30 1215 O 4.1480 6.8320 -3.1440 0
M  V30 1216 O 5.1480 -8.1680 4.8560 0
M  V30 1217 O 4.1480 6.8320 -1.1440 0
M  V30 1218 O 4.1480 6.8320 -0.1440 0
M  V30 1219 O 4.1480 6.8320 0.8560 0
M  V30 1220 O 4.1480 6.8320 1.8560 0
M  V30 1221 O 4.1480 6.8320 2.8560 0
M  V30 1222 O 4.1480 6.8320 3.8560 0
M  V30 1223 O 4.1480 6.8320 4.8560 0
M  V30 1224 O 5.1480 -5.1680 0.8560 0
M  V30 1225 O 5.1480 -5.1680 2.8560 0
M  V30 1226 O 5.1480 -4.1680 -3.1440 0
M  V30 1227 O 5.1480 -4.1680 -1.1440 0
M  V30 1228 O 5.1480 -4.1680 -0.1440 0
M  V30 1229 O 5.1480 -3.1680 -3.1440 0
M  V30 1230 O 5.1480 -3.1680 -1.1440 0
M  V30 1231 O 5.1480 0.8320 4.8560 0
M  V30 1232 O 5.1480 -0.1680 3.8560 0
M  V30 1233 O 5.1480 -0.1680 4.8560 0
M  V30 1234 O 5.1480 0.8320 -0.1440 0
M  V30 1235 O 5.1480 0.8320 0.8560 0
M  V30 1236 O 5.1480 0.8320 1.8560 0
M  V30 1237 O 5.1480 0.8320 2.8560 0
M  V30 1238 O 5.1480 0.8320 3.8560 0
M  V30 1239 O 5.1480 -1.1680 4.8560 0
M  V30 1240 O 5.1480 -0.1680 -0.1440 0
M  V30 1241 O 5.1480 -0.1680 2.8560 0
M  V30 1242 O 5.1480 7.8320 3.8560 0
M  V30 1243 O 5.1480 6.8320 2.8560 0
M  V30 1244 O 5.1480 6.8320 3.8560 0
M  V30 1245 O 5.1480 6.8320 4.8560 0
M  V30 1246 O 5.1480 7.8320 -3.1440 0
M  V30 1247 O 5.1480 7.8320 -1.1440 0
M  V30 1248 O 5.1480 7.8320 -0.1440 0
M  V30 1249 O 5.1480 7.8320 0.8560 0
M  V30 1250 O 5.1480 7.8320 1.8560 0
M  V30 1251 O 5.1480 7.8320 2.8560 0
M  V30 1252 O 5.1480 3.8320 3.8560 0
M  V30 1253 O 5.1480 3.8320 4.8560 0
M  V30 1254 O 5.1480 1.8320 -2.1440 0
M  V30 1255 O 5.1480 4.8320 -3.1440 0
M  V30 1256 O 5.1480 1.8320 -1.1440 0
M  V30 1257 O 5.1480 4.8320 -2.1440 0
M  V30 1258 O 5.1480 1.8320 -0.1440 0
M  V30 1259 O 5.1480 4.8320 -1.1440 0
M  V30 1260 O 5.1480 1.8320 0.8560 0
M  V30 1261 O 5.1480 4.8320 -0.1440 0
M  V30 1262 O 5.1480 1.8320 1.8560 0
M  V30 1263 O 5.1480 4.8320 0.8560 0
M  V30 1264 O 5.1480 1.8320 2.8560 0
M  V30 1265 O 5.1480 4.8320 1.8560 0
M  V30 1266 O 5.1480 1.8320 3.8560 0
M  V30 1267 O 5.1480 4.8320 2.8560 0
M  V30 1268 O 5.1480 1.8320 4.8560 0
M  V30 1269 O 5.1480 4.8320 3.8560 0
M  V30 1270 O 5.1480 2.8320 -3.1440 0
M  V30 1271 O 5.1480 4.8320 4.8560 0
M  V30 1272 O 5.1480 2.8320 -2.1440 0
M  V30 1273 O 5.1480 5.8320 -3.1440 0
M  V30 1274 O 5.1480 2.8320 -1.1440 0
M  V30 1275 O 5.1480 5.8320 -2.1440 0
M  V30 1276 O 5.1480 2.8320 -0.1440 0
M  V30 1277 O 5.1480 5.8320 -1.1440 0
M  V30 1278 O 5.1480 2.8320 0.8560 0
M  V30 1279 O 5.1480 5.8320 -0.1440 0
M  V30 1280 O 5.1480 2.8320 1.8560 0
M  V30 1281 O 5.1480 5.8320 0.8560 0
M  V30 1282 O 5.1480 2.8320 2.8560 0
M  V30 1283 O 5.1480 5.8320 1.8560 0
M  V30 1284 O 5.1480 2.8320 3.8560 0
M  V30 1285 O 5.1480 5.8320 2.8560 0
M  V30 1286 O 5.1480 2.8320 4.8560 0
M  V30 1287 O 5.1480 5.8320 3.8560 0
M  V30 1288 O 5.1480 3.8320 -3.1440 0
M  V30 1289 O 5.1480 5.8320 4.8560 0
M  V30 1290 O 5.1480 3.8320 -2.1440 0
M  V30 1291 O 5.1480 6.8320 -3.1440 0
M  V30 1292 O 5.1480 3.8320 -1.1440 0
M  V30 1293 O 5.1480 6.8320 -2.1440 0
M  V30 1294 O 5.1480 3.8320 -0.1440 0
M  V30 1295 O 5.1480 6.8320 -1.1440 0
M  V30 1296 O 5.1480 3.8320 0.8560 0
M  V30 1297 O 5.1480 6.8320 -0.1440 0
M  V30 1298 O 5.1480 3.8320 1.8560 0
M  V30 1299 O 5.1480 6.8320 0.8560 0
M  V30 1300 O 5.1480 3.8320 2.8560 0
M  V30 1301 O 5.1480 6.8320 1.8560 0
M  V30 1302 O 5.1480 7.8320 4.8560 0
M  V30 1303 O 6.1480 -8.1680 -3.1440 0
M  V30 1304 O 6.1480 -8.1680 -2.1440 0
M  V30 1305 O 6.1480 -2.1680 -2.1440 0
M  V30 1306 O 6.1480 -2.1680 -1.1440 0
M  V30 1307 O 6.1480 -6.1680 4.8560 0
M  V30 1308 O 6.1480 -5.1680 -1.1440 0
M  V30 1309 O 6.1480 -5.1680 -0.1440 0
M  V30 1310 O 6.1480 -8.1680 1.8560 0
M  V30 1311 O 6.1480 -5.1680 0.8560 0
M  V30 1312 O 6.1480 -8.1680 2.8560 0
M  V30 1313 O 6.1480 -8.1680 3.8560 0
M  V30 1314 O 6.1480 -8.1680 4.8560 0
M  V30 1315 O 6.1480 -7.1680 -3.1440 0
M  V30 1316 O 6.1480 -7.1680 -2.1440 0
M  V30 1317 O 6.1480 -4.1680 -1.1440 0
M  V30 1318 O 6.1480 -4.1680 -0.1440 0
M  V30 1319 O 6.1480 -7.1680 3.8560 0
M  V30 1320 O 6.1480 -7.1680 4.8560 0
M  V30 1321 O 6.1480 -3.1680 -2.1440 0
M  V30 1322 O 6.1480 -3.1680 -1.1440 0
M  V30 1323 O 6.1480 0.8320 1.8560 0
M  V30 1324 O 6.1480 0.8320 2.8560 0
M  V30 1325 O 6.1480 0.8320 3.8560 0
M  V30 1326 O 6.1480 0.8320 4.8560 0
M  V30 1327 O 6.1480 -1.1680 -2.1440 0
M  V30 1328 O 6.1480 1.8320 -0.1440 0
M  V30 1329 O 6.1480 1.8320 0.8560 0
M  V30 1330 O 6.1480 -1.1680 2.8560 0
M  V30 1331 O 6.1480 1.8320 1.8560 0
M  V30 1332 O 6.1480 1.8320 2.8560 0
M  V30 1333 O 6.1480 -1.1680 4.8560 0
M  V30 1334 O 6.1480 1.8320 3.8560 0
M  V30 1335 O 6.1480 1.8320 4.8560 0
M  V30 1336 O 6.1480 2.8320 -3.1440 0
M  V30 1337 O 6.1480 2.8320 -2.1440 0
M  V30 1338 O 6.1480 2.8320 -1.1440 0
M  V30 1339 O 6.1480 2.8320 -0.1440 0
M  V30 1340 O 6.1480 -0.1680 1.8560 0
M  V30 1341 O 6.1480 2.8320 0.8560 0
M  V30 1342 O 6.1480 -0.1680 2.8560 0
M  V30 1343 O 6.1480 2.8320 1.8560 0
M  V30 1344 O 6.1480 -0.1680 3.8560 0
M  V30 1345 O 6.1480 -0.1680 4.8560 0
M  V30 1346 O 6.1480 0.8320 -0.1440 0
M  V30 1347 O 6.1480 0.8320 0.8560 0
M  V30 1348 O 6.1480 4.8320 1.8560 0
M  V30 1349 O 6.1480 3.8320 0.8560 0
M  V30 1350 O 6.1480 3.8320 1.8560 0
M  V30 1351 O 6.1480 3.8320 2.8560 0
M  V30 1352 O 6.1480 3.8320 3.8560 0
M  V30 1353 O 6.1480 3.8320 4.8560 0
M  V30 1354 O 6.1480 4.8320 -3.1440 0
M  V30 1355 O 6.1480 4.8320 -0.1440 0
M  V30 1356 O 6.1480 4.8320 0.8560 0
M  V30 1357 O 6.1480 2.8320 2.8560 0
M  V30 1358 O 6.1480 2.8320 3.8560 0
M  V30 1359 O 6.1480 2.8320 4.8560 0
M  V30 1360 O 6.1480 3.8320 -3.1440 0
M  V30 1361 O 6.1480 3.8320 -2.1440 0
M  V30 1362 O 6.1480 3.8320 -1.1440 0
M  V30 1363 O 6.1480 3.8320 -0.1440 0
M  V30 1364 O 7.1480 -5.1680 0.8560 0
M  V30 1365 O 7.1480 -6.1680 -0.1440 0
M  V30 1366 O 7.1480 -6.1680 0.8560 0
M  V30 1367 O 7.1480 -6.1680 2.8560 0
M  V30 1368 O 7.1480 -6.1680 3.8560 0
M  V30 1369 O 7.1480 -6.1680 4.8560 0
M  V30 1370 O 7.1480 -5.1680 -0.1440 0
M  V30 1371 O 6.1480 7.8320 0.8560 0
M  V30 1372 O 6.1480 4.8320 2.8560 0
M  V30 1373 O 6.1480 7.8320 1.8560 0
M  V30 1374 O 6.1480 4.8320 3.8560 0
M  V30 1375 O 6.1480 7.8320 2.8560 0
M  V30 1376 O 6.1480 4.8320 4.8560 0
M  V30 1377 O 6.1480 7.8320 3.8560 0
M  V30 1378 O 6.1480 5.8320 -3.1440 0
M  V30 1379 O 6.1480 5.8320 -2.1440 0
M  V30 1380 O 7.1480 -8.1680 -3.1440 0
M  V30 1381 O 6.1480 5.8320 -1.1440 0
M  V30 1382 O 7.1480 -8.1680 -2.1440 0
M  V30 1383 O 6.1480 5.8320 -0.1440 0
M  V30 1384 O 7.1480 -8.1680 -1.1440 0
M  V30 1385 O 6.1480 5.8320 0.8560 0
M  V30 1386 O 7.1480 -8.1680 -0.1440 0
M  V30 1387 O 6.1480 5.8320 1.8560 0
M  V30 1388 O 7.1480 -8.1680 0.8560 0
M  V30 1389 O 6.1480 5.8320 2.8560 0
M  V30 1390 O 7.1480 -8.1680 1.8560 0
M  V30 1391 O 6.1480 5.8320 3.8560 0
M  V30 1392 O 7.1480 -8.1680 2.8560 0
M  V30 1393 O 6.1480 5.8320 4.8560 0
M  V30 1394 O 7.1480 -8.1680 3.8560 0
M  V30 1395 O 6.1480 6.8320 -3.1440 0
M  V30 1396 O 7.1480 -8.1680 4.8560 0
M  V30 1397 O 6.1480 6.8320 -2.1440 0
M  V30 1398 O 6.1480 6.8320 -1.1440 0
M  V30 1399 O 7.1480 -7.1680 -2.1440 0
M  V30 1400 O 6.1480 6.8320 -0.1440 0
M  V30 1401 O 7.1480 -7.1680 -1.1440 0
M  V30 1402 O 6.1480 6.8320 0.8560 0
M  V30 1403 O 6.1480 6.8320 1.8560 0
M  V30 1404 O 7.1480 -7.1680 0.8560 0
M  V30 1405 O 6.1480 6.8320 2.8560 0
M  V30 1406 O 7.1480 -7.1680 1.8560 0
M  V30 1407 O 6.1480 6.8320 3.8560 0
M  V30 1408 O 7.1480 -7.1680 2.8560 0
M  V30 1409 O 7.1480 -7.1680 3.8560 0
M  V30 1410 O 6.1480 7.8320 -3.1440 0
M  V30 1411 O 7.1480 -7.1680 4.8560 0
M  V30 1412 O 6.1480 7.8320 -2.1440 0
M  V30 1413 O 6.1480 7.8320 -1.1440 0
M  V30 1414 O 6.1480 7.8320 -0.1440 0
M  V30 1415 O 7.1480 -6.1680 -1.1440 0
M  V30 1416 O 7.1480 -5.1680 1.8560 0
M  V30 1417 O 7.1480 -5.1680 2.8560 0
M  V30 1418 O 7.1480 -5.1680 4.8560 0
M  V30 1419 O 7.1480 -4.1680 -1.1440 0
M  V30 1420 O 7.1480 -4.1680 -0.1440 0
M  V30 1421 O 7.1480 -4.1680 0.8560 0
M  V30 1422 O 7.1480 -3.1680 -1.1440 0
M  V30 1423 O 7.1480 -3.1680 -0.1440 0
M  V30 1424 O 7.1480 1.8320 -0.1440 0
M  V30 1425 O 7.1480 0.8320 1.8560 0
M  V30 1426 O 7.1480 0.8320 2.8560 0
M  V30 1427 O 7.1480 0.8320 3.8560 0
M  V30 1428 O 7.1480 0.8320 4.8560 0
M  V30 1429 O 7.1480 -1.1680 -1.1440 0
M  V30 1430 O 7.1480 -1.1680 -0.1440 0
M  V30 1431 O 7.1480 -1.1680 1.8560 0
M  V30 1432 O 7.1480 -1.1680 2.8560 0
M  V30 1433 O 7.1480 -1.1680 3.8560 0
M  V30 1434 O 7.1480 -1.1680 4.8560 0
M  V30 1435 O 7.1480 -0.1680 2.8560 0
M  V30 1436 O 7.1480 -0.1680 3.8560 0
M  V30 1437 O 7.1480 -0.1680 4.8560 0
M  V30 1438 O 7.1480 -2.1680 -1.1440 0
M  V30 1439 O 7.1480 7.8320 -0.1440 0
M  V30 1440 O 7.1480 7.8320 0.8560 0
M  V30 1441 O 7.1480 7.8320 1.8560 0
M  V30 1442 O 7.1480 7.8320 2.8560 0
M  V30 1443 O 7.1480 1.8320 1.8560 0
M  V30 1444 O 7.1480 4.8320 0.8560 0
M  V30 1445 O 7.1480 1.8320 2.8560 0
M  V30 1446 O 7.1480 4.8320 1.8560 0
M  V30 1447 O 7.1480 1.8320 3.8560 0
M  V30 1448 O 7.1480 4.8320 2.8560 0
M  V30 1449 O 7.1480 1.8320 4.8560 0
M  V30 1450 O 7.1480 4.8320 3.8560 0
M  V30 1451 O 7.1480 2.8320 -3.1440 0
M  V30 1452 O 7.1480 4.8320 4.8560 0
M  V30 1453 O 7.1480 2.8320 -1.1440 0
M  V30 1454 O 7.1480 2.8320 -0.1440 0
M  V30 1455 O 7.1480 2.8320 0.8560 0
M  V30 1456 O 7.1480 2.8320 1.8560 0
M  V30 1457 O 7.1480 5.8320 0.8560 0
M  V30 1458 O 7.1480 2.8320 2.8560 0
M  V30 1459 O 7.1480 5.8320 1.8560 0
M  V30 1460 O 7.1480 2.8320 3.8560 0
M  V30 1461 O 7.1480 5.8320 2.8560 0
M  V30 1462 O 7.1480 2.8320 4.8560 0
M  V30 1463 O 7.1480 6.8320 -2.1440 0
M  V30 1464 O 7.1480 6.8320 -1.1440 0
M  V30 1465 O 7.1480 3.8320 0.8560 0
M  V30 1466 O 7.1480 6.8320 -0.1440 0
M  V30 1467 O 7.1480 3.8320 1.8560 0
M  V30 1468 O 7.1480 6.8320 0.8560 0
M  V30 1469 O 7.1480 3.8320 2.8560 0
M  V30 1470 O 7.1480 6.8320 1.8560 0
M  V30 1471 O 7.1480 3.8320 3.8560 0
M  V30 1472 O 7.1480 6.8320 2.8560 0
M  V30 1473 O 7.1480 3.8320 4.8560 0
M  V30 END ATOM
M  V30 BEGIN BOND
M  V30 1 1 1 2
M  V30 2 1 1 9
M  V30 3 1 1 10
M  V30 4 1 1 11
M  V30 5 1 1 132
M  V30 6 1 1 133
M  V30 7 1 1 147
M  V30 8 1 1 148
M  V30 9 1 1 149
M  V30 10 1 1 165
M  V30 11 1 1 167
M  V30 12 1 1 169
M  V30 13 1 2 3
M  V30 14 1 2 10
M  V30 15 1 2 11
M  V30 16 1 2 15
M  V30 17 1 2 132
M  V30 18 1 2 133
M  V30 19 1 2 134
M  V30 20 1 2 148
M  V30 21 1 2 149
M  V30 22 1 2 150
M  V30 23 1 2 167
M  V30 24 1 2 169
M  V30 25 1 2 171
M  V30 26 1 3 11
M  V30 27 1 3 15
M  V30 28 1 3 133
M  V30 29 1 3 134
M  V30 30 1 3 149
M  V30 31 1 3 150
M  V30 32 1 3 169
M  V30 33 1 3 171
M  V30 34 1 4 5
M  V30 35 1 4 17
M  V30 36 1 4 19
M  V30 37 1 4 135
M  V30 38 1 4 136
M  V30 39 1 4 151
M  V30 40 1 4 152
M  V30 41 1 4 173
M  V30 42 1 4 175
M  V30 43 1 5 6
M  V30 44 1 5 17
M  V30 45 1 5 19
M  V30 46 1 5 20
M  V30 47 1 5 135
M  V30 48 1 5 136
M  V30 49 1 5 151
M  V30 50 1 5 152
M  V30 51 1 5 153
M  V30 52 1 5 159
M  V30 53 1 5 173
M  V30 54 1 5 175
M  V30 55 1 5 176
M  V30 56 1 6 7
M  V30 57 1 6 19
M  V30 58 1 6 20
M  V30 59 1 6 22
M  V30 60 1 6 136
M  V30 61 1 6 152
M  V30 62 1 6 153
M  V30 63 1 6 159
M  V30 64 1 6 161
M  V30 65 1 6 175
M  V30 66 1 6 176
M  V30 67 1 6 177
M  V30 68 1 7 8
M  V30 69 1 7 20
M  V30 70 1 7 22
M  V30 71 1 7 24
M  V30 72 1 7 146
M  V30 73 1 7 153
M  V30 74 1 7 154
M  V30 75 1 7 159
M  V30 76 1 7 161
M  V30 77 1 7 163
M  V30 78 1 7 176
M  V30 79 1 7 177
M  V30 80 1 8 9
M  V30 81 1 8 22
M  V30 82 1 8 24
M  V30 83 1 8 26
M  V30 84 1 8 146
M  V30 85 1 8 147
M  V30 86 1 8 154
M  V30 87 1 8 155
M  V30 88 1 8 161
M  V30 89 1 8 163
M  V30 90 1 8 165
M  V30 91 1 8 177
M  V30 92 1 9 10
M  V30 93 1 9 24
M  V30 94 1 9 26
M  V30 95 1 9 28
M  V30 96 1 9 146
M  V30 97 1 9 147
M  V30 98 1 9 148
M  V30 99 1 9 154
M  V30 100 1 9 155
M  V30 101 1 9 156
M  V30 102 1 9 163
M  V30 103 1 9 165
M  V30 104 1 9 167
M  V30 105 1 10 11
M  V30 106 1 10 26
M  V30 107 1 10 28
M  V30 108 1 10 30
M  V30 109 1 10 147
M  V30 110 1 10 148
M  V30 111 1 10 149
M  V30 112 1 10 155
M  V30 113 1 10 156
M  V30 114 1 10 157
M  V30 115 1 10 165
M  V30 116 1 10 167
M  V30 117 1 10 169
M  V30 118 1 11 15
M  V30 119 1 11 28
M  V30 120 1 11 30
M  V30 121 1 11 32
M  V30 122 1 11 148
M  V30 123 1 11 149
M  V30 124 1 11 150
M  V30 125 1 11 156
M  V30 126 1 11 157
M  V30 127 1 11 158
M  V30 128 1 11 167
M  V30 129 1 11 169
M  V30 130 1 11 171
M  V30 131 1 12 56
M  V30 132 1 12 58
M  V30 133 1 12 98
M  V30 134 1 12 126
M  V30 135 1 12 127
M  V30 136 1 13 47
M  V30 137 1 13 61
M  V30 138 1 13 99
M  V30 139 1 13 100
M  V30 140 1 13 120
M  V30 141 1 13 121
M  V30 142 1 13 128
M  V30 143 1 13 129
M  V30 144 1 14 16
M  V30 145 1 14 29
M  V30 146 1 14 31
M  V30 147 1 14 33
M  V30 148 1 14 140
M  V30 149 1 14 141
M  V30 150 1 14 142
M  V30 151 1 14 168
M  V30 152 1 14 170
M  V30 153 1 14 172
M  V30 154 1 14 179
M  V30 155 1 15 30
M  V30 156 1 15 32
M  V30 157 1 15 149
M  V30 158 1 15 150
M  V30 159 1 15 157
M  V30 160 1 15 158
M  V30 161 1 15 169
M  V30 162 1 15 171
M  V30 163 1 16 18
M  V30 164 1 16 31
M  V30 165 1 16 33
M  V30 166 1 16 141
M  V30 167 1 16 142
M  V30 168 1 16 143
M  V30 169 1 16 170
M  V30 170 1 16 172
M  V30 171 1 16 174
M  V30 172 1 16 179
M  V30 173 1 16 180
M  V30 174 1 17 19
M  V30 175 1 17 34
M  V30 176 1 17 151
M  V30 177 1 17 152
M  V30 178 1 17 160
M  V30 179 1 17 173
M  V30 180 1 17 175
M  V30 181 1 18 33
M  V30 182 1 18 142
M  V30 183 1 18 143
M  V30 184 1 18 172
M  V30 185 1 18 174
M  V30 186 1 18 180
M  V30 187 1 19 20
M  V30 188 1 19 34
M  V30 189 1 19 36
M  V30 190 1 19 151
M  V30 191 1 19 152
M  V30 192 1 19 153
M  V30 193 1 19 160
M  V30 194 1 19 162
M  V30 195 1 19 173
M  V30 196 1 19 175
M  V30 197 1 19 176
M  V30 198 1 20 22
M  V30 199 1 20 34
M  V30 200 1 20 36
M  V30 201 1 20 37
M  V30 202 1 20 152
M  V30 203 1 20 153
M  V30 204 1 20 160
M  V30 205 1 20 162
M  V30 206 1 20 164
M  V30 207 1 20 175
M  V30 208 1 20 176
M  V30 209 1 20 177
M  V30 210 1 21 23
M  V30 211 1 21 35
M  V30 212 1 21 89
M  V30 213 1 21 90
M  V30 214 1 21 144
M  V30 215 1 21 178
M  V30 216 1 21 182
M  V30 217 1 22 24
M  V30 218 1 22 36
M  V30 219 1 22 37
M  V30 220 1 22 38
M  V30 221 1 22 146
M  V30 222 1 22 153
M  V30 223 1 22 154
M  V30 224 1 22 162
M  V30 225 1 22 164
M  V30 226 1 22 166
M  V30 227 1 22 176
M  V30 228 1 22 177
M  V30 229 1 23 25
M  V30 230 1 23 89
M  V30 231 1 23 90
M  V30 232 1 23 91
M  V30 233 1 23 138
M  V30 234 1 23 144
M  V30 235 1 23 145
M  V30 236 1 23 178
M  V30 237 1 23 182
M  V30 238 1 24 26
M  V30 239 1 24 37
M  V30 240 1 24 38
M  V30 241 1 24 39
M  V30 242 1 24 146
M  V30 243 1 24 147
M  V30 244 1 24 154
M  V30 245 1 24 155
M  V30 246 1 24 164
M  V30 247 1 24 166
M  V30 248 1 24 168
M  V30 249 1 24 177
M  V30 250 1 25 27
M  V30 251 1 25 90
M  V30 252 1 25 91
M  V30 253 1 25 92
M  V30 254 1 25 137
M  V30 255 1 25 138
M  V30 256 1 25 139
M  V30 257 1 25 144
M  V30 258 1 25 145
M  V30 259 1 25 178
M  V30 260 1 25 182
M  V30 261 1 26 28
M  V30 262 1 26 38
M  V30 263 1 26 39
M  V30 264 1 26 40
M  V30 265 1 26 146
M  V30 266 1 26 147
M  V30 267 1 26 148
M  V30 268 1 26 154
M  V30 269 1 26 155
M  V30 270 1 26 156
M  V30 271 1 26 166
M  V30 272 1 26 168
M  V30 273 1 26 170
M  V30 274 1 27 29
M  V30 275 1 27 91
M  V30 276 1 27 92
M  V30 277 1 27 137
M  V30 278 1 27 138
M  V30 279 1 27 139
M  V30 280 1 27 140
M  V30 281 1 27 145
M  V30 282 1 28 30
M  V30 283 1 28 39
M  V30 284 1 28 40
M  V30 285 1 28 41
M  V30 286 1 28 147
M  V30 287 1 28 148
M  V30 288 1 28 149
M  V30 289 1 28 155
M  V30 290 1 28 156
M  V30 291 1 28 157
M  V30 292 1 28 168
M  V30 293 1 28 170
M  V30 294 1 28 172
M  V30 295 1 29 31
M  V30 296 1 29 92
M  V30 297 1 29 137
M  V30 298 1 29 139
M  V30 299 1 29 140
M  V30 300 1 29 141
M  V30 301 1 29 179
M  V30 302 1 30 32
M  V30 303 1 30 40
M  V30 304 1 30 41
M  V30 305 1 30 42
M  V30 306 1 30 148
M  V30 307 1 30 149
M  V30 308 1 30 150
M  V30 309 1 30 156
M  V30 310 1 30 157
M  V30 311 1 30 158
M  V30 312 1 30 170
M  V30 313 1 30 172
M  V30 314 1 30 174
M  V30 315 1 31 33
M  V30 316 1 31 140
M  V30 317 1 31 141
M  V30 318 1 31 142
M  V30 319 1 31 179
M  V30 320 1 32 41
M  V30 321 1 32 42
M  V30 322 1 32 149
M  V30 323 1 32 150
M  V30 324 1 32 157
M  V30 325 1 32 158
M  V30 326 1 32 172
M  V30 327 1 32 174
M  V30 328 1 33 141
M  V30 329 1 33 142
M  V30 330 1 33 143
M  V30 331 1 33 179
M  V30 332 1 33 180
M  V30 333 1 34 36
M  V30 334 1 34 43
M  V30 335 1 34 151
M  V30 336 1 34 152
M  V30 337 1 34 153
M  V30 338 1 34 160
M  V30 339 1 34 162
M  V30 340 1 34 178
M  V30 341 1 35 89
M  V30 342 1 35 93
M  V30 343 1 36 37
M  V30 344 1 36 43
M  V30 345 1 36 44
M  V30 346 1 36 138
M  V30 347 1 36 152
M  V30 348 1 36 153
M  V30 349 1 36 160
M  V30 350 1 36 162
M  V30 351 1 36 164
M  V30 352 1 36 178
M  V30 353 1 37 38
M  V30 354 1 37 43
M  V30 355 1 37 44
M  V30 356 1 37 45
M  V30 357 1 37 138
M  V30 358 1 37 139
M  V30 359 1 37 153
M  V30 360 1 37 154
M  V30 361 1 37 162
M  V30 362 1 37 164
M  V30 363 1 37 166
M  V30 364 1 37 178
M  V30 365 1 38 39
M  V30 366 1 38 44
M  V30 367 1 38 45
M  V30 368 1 38 46
M  V30 369 1 38 138
M  V30 370 1 38 139
M  V30 371 1 38 140
M  V30 372 1 38 154
M  V30 373 1 38 155
M  V30 374 1 38 164
M  V30 375 1 38 166
M  V30 376 1 38 168
M  V30 377 1 14 39
M  V30 378 1 39 40
M  V30 379 1 39 45
M  V30 380 1 39 46
M  V30 381 1 39 139
M  V30 382 1 39 140
M  V30 383 1 39 141
M  V30 384 1 39 154
M  V30 385 1 39 155
M  V30 386 1 39 156
M  V30 387 1 39 166
M  V30 388 1 39 168
M  V30 389 1 39 170
M  V30 390 1 14 40
M  V30 391 1 16 40
M  V30 392 1 40 41
M  V30 393 1 40 46
M  V30 394 1 40 140
M  V30 395 1 40 141
M  V30 396 1 40 142
M  V30 397 1 40 155
M  V30 398 1 40 156
M  V30 399 1 40 157
M  V30 400 1 40 168
M  V30 401 1 40 170
M  V30 402 1 40 172
M  V30 403 1 14 41
M  V30 404 1 16 41
M  V30 405 1 18 41
M  V30 406 1 41 42
M  V30 407 1 41 141
M  V30 408 1 41 142
M  V30 409 1 41 143
M  V30 410 1 41 156
M  V30 411 1 41 157
M  V30 412 1 41 158
M  V30 413 1 41 170
M  V30 414 1 41 172
M  V30 415 1 41 174
M  V30 416 1 16 42
M  V30 417 1 18 42
M  V30 418 1 42 142
M  V30 419 1 42 143
M  V30 420 1 42 157
M  V30 421 1 42 158
M  V30 422 1 42 172
M  V30 423 1 42 174
M  V30 424 1 21 43
M  V30 425 1 23 43
M  V30 426 1 25 43
M  V30 427 1 43 44
M  V30 428 1 43 138
M  V30 429 1 43 144
M  V30 430 1 43 145
M  V30 431 1 43 160
M  V30 432 1 43 162
M  V30 433 1 43 164
M  V30 434 1 43 178
M  V30 435 1 23 44
M  V30 436 1 25 44
M  V30 437 1 27 44
M  V30 438 1 44 45
M  V30 439 1 44 137
M  V30 440 1 44 138
M  V30 441 1 44 139
M  V30 442 1 44 144
M  V30 443 1 44 145
M  V30 444 1 44 162
M  V30 445 1 44 164
M  V30 446 1 44 166
M  V30 447 1 44 178
M  V30 448 1 25 45
M  V30 449 1 27 45
M  V30 450 1 29 45
M  V30 451 1 45 46
M  V30 452 1 45 137
M  V30 453 1 45 138
M  V30 454 1 45 139
M  V30 455 1 45 140
M  V30 456 1 45 145
M  V30 457 1 45 164
M  V30 458 1 45 166
M  V30 459 1 45 168
M  V30 460 1 14 46
M  V30 461 1 27 46
M  V30 462 1 29 46
M  V30 463 1 31 46
M  V30 464 1 46 137
M  V30 465 1 46 139
M  V30 466 1 46 140
M  V30 467 1 46 141
M  V30 468 1 46 166
M  V30 469 1 46 168
M  V30 470 1 46 170
M  V30 471 1 46 179
M  V30 472 1 47 49
M  V30 473 1 47 61
M  V30 474 1 47 63
M  V30 475 1 47 99
M  V30 476 1 47 100
M  V30 477 1 47 101
M  V30 478 1 47 120
M  V30 479 1 47 121
M  V30 480 1 47 122
M  V30 481 1 47 128
M  V30 482 1 47 129
M  V30 483 1 47 130
M  V30 484 1 48 50
M  V30 485 1 48 60
M  V30 486 1 48 62
M  V30 487 1 48 112
M  V30 488 1 48 115
M  V30 489 1 49 51
M  V30 490 1 49 61
M  V30 491 1 49 63
M  V30 492 1 49 64
M  V30 493 1 49 100
M  V30 494 1 49 101
M  V30 495 1 49 102
M  V30 496 1 49 121
M  V30 497 1 49 122
M  V30 498 1 49 124
M  V30 499 1 49 129
M  V30 500 1 49 130
M  V30 501 1 49 131
M  V30 502 1 50 62
M  V30 503 1 50 65
M  V30 504 1 50 112
M  V30 505 1 51 52
M  V30 506 1 51 63
M  V30 507 1 51 64
M  V30 508 1 51 66
M  V30 509 1 51 101
M  V30 510 1 51 102
M  V30 511 1 51 103
M  V30 512 1 51 122
M  V30 513 1 51 124
M  V30 514 1 51 130
M  V30 515 1 51 131
M  V30 516 1 52 53
M  V30 517 1 52 64
M  V30 518 1 52 66
M  V30 519 1 52 67
M  V30 520 1 52 95
M  V30 521 1 52 96
M  V30 522 1 52 102
M  V30 523 1 52 103
M  V30 524 1 52 124
M  V30 525 1 52 131
M  V30 526 1 53 54
M  V30 527 1 53 66
M  V30 528 1 53 67
M  V30 529 1 53 68
M  V30 530 1 53 95
M  V30 531 1 53 96
M  V30 532 1 53 97
M  V30 533 1 53 103
M  V30 534 1 53 125
M  V30 535 1 53 132
M  V30 536 1 54 56
M  V30 537 1 54 67
M  V30 538 1 54 68
M  V30 539 1 54 69
M  V30 540 1 54 95
M  V30 541 1 54 96
M  V30 542 1 54 97
M  V30 543 1 54 98
M  V30 544 1 54 125
M  V30 545 1 54 126
M  V30 546 1 54 132
M  V30 547 1 54 133
M  V30 548 1 56 58
M  V30 549 1 56 68
M  V30 550 1 56 69
M  V30 551 1 56 71
M  V30 552 1 56 97
M  V30 553 1 56 98
M  V30 554 1 56 125
M  V30 555 1 56 126
M  V30 556 1 56 127
M  V30 557 1 56 132
M  V30 558 1 56 133
M  V30 559 1 56 134
M  V30 560 1 57 59
M  V30 561 1 57 70
M  V30 562 1 57 72
M  V30 563 1 57 114
M  V30 564 1 57 120
M  V30 565 1 57 121
M  V30 566 1 58 69
M  V30 567 1 58 71
M  V30 568 1 58 98
M  V30 569 1 58 126
M  V30 570 1 58 127
M  V30 571 1 58 133
M  V30 572 1 58 134
M  V30 573 1 59 60
M  V30 574 1 59 70
M  V30 575 1 59 72
M  V30 576 1 59 73
M  V30 577 1 59 114
M  V30 578 1 59 115
M  V30 579 1 59 120
M  V30 580 1 59 121
M  V30 581 1 59 122
M  V30 582 1 60 62
M  V30 583 1 60 72
M  V30 584 1 60 73
M  V30 585 1 60 75
M  V30 586 1 60 112
M  V30 587 1 60 114
M  V30 588 1 60 115
M  V30 589 1 60 121
M  V30 590 1 60 122
M  V30 591 1 60 124
M  V30 592 1 61 63
M  V30 593 1 61 74
M  V30 594 1 61 76
M  V30 595 1 61 99
M  V30 596 1 61 100
M  V30 597 1 61 101
M  V30 598 1 61 128
M  V30 599 1 61 129
M  V30 600 1 61 130
M  V30 601 1 61 135
M  V30 602 1 61 136
M  V30 603 1 61 159
M  V30 604 1 62 73
M  V30 605 1 62 75
M  V30 606 1 62 77
M  V30 607 1 62 112
M  V30 608 1 62 115
M  V30 609 1 62 122
M  V30 610 1 62 124
M  V30 611 1 63 64
M  V30 612 1 63 74
M  V30 613 1 63 76
M  V30 614 1 63 78
M  V30 615 1 63 100
M  V30 616 1 63 101
M  V30 617 1 63 102
M  V30 618 1 63 129
M  V30 619 1 63 130
M  V30 620 1 63 131
M  V30 621 1 63 136
M  V30 622 1 63 159
M  V30 623 1 63 161
M  V30 624 1 64 66
M  V30 625 1 64 76
M  V30 626 1 64 78
M  V30 627 1 64 80
M  V30 628 1 64 101
M  V30 629 1 64 102
M  V30 630 1 64 103
M  V30 631 1 64 130
M  V30 632 1 64 131
M  V30 633 1 64 159
M  V30 634 1 64 161
M  V30 635 1 64 163
M  V30 636 1 65 77
M  V30 637 1 65 79
M  V30 638 1 65 81
M  V30 639 1 65 96
M  V30 640 1 65 97
M  V30 641 1 66 67
M  V30 642 1 66 78
M  V30 643 1 66 80
M  V30 644 1 66 82
M  V30 645 1 66 95
M  V30 646 1 66 102
M  V30 647 1 66 103
M  V30 648 1 66 131
M  V30 649 1 66 161
M  V30 650 1 66 163
M  V30 651 1 66 165
M  V30 652 1 1 67
M  V30 653 1 67 68
M  V30 654 1 67 80
M  V30 655 1 67 82
M  V30 656 1 67 95
M  V30 657 1 67 103
M  V30 658 1 67 125
M  V30 659 1 67 132
M  V30 660 1 67 163
M  V30 661 1 67 165
M  V30 662 1 67 167
M  V30 663 1 1 68
M  V30 664 1 2 68
M  V30 665 1 68 69
M  V30 666 1 68 82
M  V30 667 1 68 95
M  V30 668 1 68 125
M  V30 669 1 68 126
M  V30 670 1 68 132
M  V30 671 1 68 133
M  V30 672 1 68 165
M  V30 673 1 68 167
M  V30 674 1 68 169
M  V30 675 1 1 69
M  V30 676 1 2 69
M  V30 677 1 3 69
M  V30 678 1 69 71
M  V30 679 1 69 125
M  V30 680 1 69 126
M  V30 681 1 69 127
M  V30 682 1 69 132
M  V30 683 1 69 133
M  V30 684 1 69 134
M  V30 685 1 69 167
M  V30 686 1 69 169
M  V30 687 1 69 171
M  V30 688 1 13 70
M  V30 689 1 47 70
M  V30 690 1 70 72
M  V30 691 1 70 99
M  V30 692 1 70 100
M  V30 693 1 70 114
M  V30 694 1 70 120
M  V30 695 1 70 121
M  V30 696 1 2 71
M  V30 697 1 3 71
M  V30 698 1 71 126
M  V30 699 1 71 127
M  V30 700 1 71 133
M  V30 701 1 71 134
M  V30 702 1 71 169
M  V30 703 1 71 171
M  V30 704 1 13 72
M  V30 705 1 47 72
M  V30 706 1 49 72
M  V30 707 1 72 73
M  V30 708 1 72 99
M  V30 709 1 72 100
M  V30 710 1 72 101
M  V30 711 1 72 114
M  V30 712 1 72 115
M  V30 713 1 72 120
M  V30 714 1 72 121
M  V30 715 1 72 122
M  V30 716 1 47 73
M  V30 717 1 49 73
M  V30 718 1 51 73
M  V30 719 1 73 75
M  V30 720 1 73 100
M  V30 721 1 73 101
M  V30 722 1 73 102
M  V30 723 1 73 114
M  V30 724 1 73 115
M  V30 725 1 73 121
M  V30 726 1 73 122
M  V30 727 1 73 124
M  V30 728 1 4 74
M  V30 729 1 5 74
M  V30 730 1 6 74
M  V30 731 1 74 76
M  V30 732 1 74 128
M  V30 733 1 74 129
M  V30 734 1 74 130
M  V30 735 1 74 135
M  V30 736 1 74 136
M  V30 737 1 74 159
M  V30 738 1 74 173
M  V30 739 1 74 175
M  V30 740 1 74 176
M  V30 741 1 49 75
M  V30 742 1 51 75
M  V30 743 1 52 75
M  V30 744 1 75 77
M  V30 745 1 75 101
M  V30 746 1 75 102
M  V30 747 1 75 103
M  V30 748 1 75 115
M  V30 749 1 75 122
M  V30 750 1 75 124
M  V30 751 1 5 76
M  V30 752 1 6 76
M  V30 753 1 7 76
M  V30 754 1 76 78
M  V30 755 1 76 129
M  V30 756 1 76 130
M  V30 757 1 76 131
M  V30 758 1 76 136
M  V30 759 1 76 159
M  V30 760 1 76 161
M  V30 761 1 76 175
M  V30 762 1 76 176
M  V30 763 1 76 177
M  V30 764 1 51 77
M  V30 765 1 52 77
M  V30 766 1 53 77
M  V30 767 1 77 79
M  V30 768 1 77 95
M  V30 769 1 77 96
M  V30 770 1 77 102
M  V30 771 1 77 103
M  V30 772 1 77 124
M  V30 773 1 6 78
M  V30 774 1 7 78
M  V30 775 1 8 78
M  V30 776 1 78 80
M  V30 777 1 78 130
M  V30 778 1 78 131
M  V30 779 1 78 146
M  V30 780 1 78 159
M  V30 781 1 78 161
M  V30 782 1 78 163
M  V30 783 1 78 176
M  V30 784 1 78 177
M  V30 785 1 52 79
M  V30 786 1 53 79
M  V30 787 1 54 79
M  V30 788 1 79 81
M  V30 789 1 79 95
M  V30 790 1 79 96
M  V30 791 1 79 97
M  V30 792 1 79 103
M  V30 793 1 79 125
M  V30 794 1 7 80
M  V30 795 1 8 80
M  V30 796 1 9 80
M  V30 797 1 80 82
M  V30 798 1 80 131
M  V30 799 1 80 146
M  V30 800 1 80 147
M  V30 801 1 80 161
M  V30 802 1 80 163
M  V30 803 1 80 165
M  V30 804 1 80 177
M  V30 805 1 53 81
M  V30 806 1 54 81
M  V30 807 1 56 81
M  V30 808 1 81 95
M  V30 809 1 81 96
M  V30 810 1 81 97
M  V30 811 1 81 98
M  V30 812 1 81 125
M  V30 813 1 81 126
M  V30 814 1 1 82
M  V30 815 1 8 82
M  V30 816 1 9 82
M  V30 817 1 10 82
M  V30 818 1 82 132
M  V30 819 1 82 146
M  V30 820 1 82 147
M  V30 821 1 82 148
M  V30 822 1 82 163
M  V30 823 1 82 165
M  V30 824 1 82 167
M  V30 825 1 83 88
M  V30 826 1 84 85
M  V30 827 1 84 107
M  V30 828 1 84 108
M  V30 829 1 84 181
M  V30 830 1 84 183
M  V30 831 1 85 86
M  V30 832 1 85 107
M  V30 833 1 85 108
M  V30 834 1 85 109
M  V30 835 1 85 181
M  V30 836 1 85 183
M  V30 837 1 85 184
M  V30 838 1 85 195
M  V30 839 1 86 87
M  V30 840 1 86 108
M  V30 841 1 86 109
M  V30 842 1 86 110
M  V30 843 1 86 183
M  V30 844 1 86 184
M  V30 845 1 86 195
M  V30 846 1 87 88
M  V30 847 1 87 109
M  V30 848 1 87 110
M  V30 849 1 87 111
M  V30 850 1 87 184
M  V30 851 1 87 185
M  V30 852 1 87 195
M  V30 853 1 88 110
M  V30 854 1 88 111
M  V30 855 1 88 113
M  V30 856 1 88 185
M  V30 857 1 88 186
M  V30 858 1 89 90
M  V30 859 1 89 93
M  V30 860 1 89 94
M  V30 861 1 89 144
M  V30 862 1 89 182
M  V30 863 1 90 91
M  V30 864 1 90 93
M  V30 865 1 90 94
M  V30 866 1 90 144
M  V30 867 1 90 145
M  V30 868 1 90 182
M  V30 869 1 91 92
M  V30 870 1 91 94
M  V30 871 1 91 137
M  V30 872 1 91 144
M  V30 873 1 91 145
M  V30 874 1 91 182
M  V30 875 1 83 92
M  V30 876 1 92 137
M  V30 877 1 92 145
M  V30 878 1 84 93
M  V30 879 1 85 93
M  V30 880 1 86 93
M  V30 881 1 93 94
M  V30 882 1 93 182
M  V30 883 1 93 195
M  V30 884 1 85 94
M  V30 885 1 86 94
M  V30 886 1 87 94
M  V30 887 1 94 182
M  V30 888 1 94 195
M  V30 889 1 95 125
M  V30 890 1 95 132
M  V30 891 1 95 96
M  V30 892 1 96 97
M  V30 893 1 96 103
M  V30 894 1 96 125
M  V30 895 1 95 97
M  V30 896 1 97 98
M  V30 897 1 97 125
M  V30 898 1 97 126
M  V30 899 1 97 210
M  V30 900 1 97 227
M  V30 901 1 98 125
M  V30 902 1 98 126
M  V30 903 1 98 127
M  V30 904 1 98 210
M  V30 905 1 98 211
M  V30 906 1 98 227
M  V30 907 1 98 228
M  V30 908 1 99 100
M  V30 909 1 99 128
M  V30 910 1 99 129
M  V30 911 1 99 212
M  V30 912 1 99 214
M  V30 913 1 99 218
M  V30 914 1 99 220
M  V30 915 1 99 230
M  V30 916 1 99 232
M  V30 917 1 100 101
M  V30 918 1 100 128
M  V30 919 1 100 129
M  V30 920 1 100 130
M  V30 921 1 100 209
M  V30 922 1 100 212
M  V30 923 1 100 214
M  V30 924 1 100 216
M  V30 925 1 100 218
M  V30 926 1 100 220
M  V30 927 1 100 222
M  V30 928 1 100 230
M  V30 929 1 100 232
M  V30 930 1 101 102
M  V30 931 1 101 129
M  V30 932 1 101 130
M  V30 933 1 101 131
M  V30 934 1 101 209
M  V30 935 1 101 214
M  V30 936 1 101 216
M  V30 937 1 101 220
M  V30 938 1 101 222
M  V30 939 1 101 224
M  V30 940 1 101 232
M  V30 941 1 102 103
M  V30 942 1 102 130
M  V30 943 1 102 131
M  V30 944 1 102 209
M  V30 945 1 102 216
M  V30 946 1 102 222
M  V30 947 1 102 224
M  V30 948 1 95 103
M  V30 949 1 103 131
M  V30 950 1 103 224
M  V30 951 1 104 105
M  V30 952 1 104 190
M  V30 953 1 104 191
M  V30 954 1 104 192
M  V30 955 1 104 199
M  V30 956 1 104 200
M  V30 957 1 105 106
M  V30 958 1 105 191
M  V30 959 1 105 192
M  V30 960 1 105 193
M  V30 961 1 105 199
M  V30 962 1 105 200
M  V30 963 1 105 201
M  V30 964 1 106 192
M  V30 965 1 106 193
M  V30 966 1 106 200
M  V30 967 1 106 201
M  V30 968 1 107 108
M  V30 969 1 107 181
M  V30 970 1 107 183
M  V30 971 1 107 187
M  V30 972 1 108 109
M  V30 973 1 108 181
M  V30 974 1 108 183
M  V30 975 1 108 184
M  V30 976 1 108 187
M  V30 977 1 108 188
M  V30 978 1 108 195
M  V30 979 1 109 110
M  V30 980 1 109 183
M  V30 981 1 109 184
M  V30 982 1 109 187
M  V30 983 1 109 188
M  V30 984 1 109 189
M  V30 985 1 109 195
M  V30 986 1 110 111
M  V30 987 1 110 116
M  V30 988 1 110 184
M  V30 989 1 110 185
M  V30 990 1 110 188
M  V30 991 1 110 189
M  V30 992 1 110 190
M  V30 993 1 110 195
M  V30 994 1 111 113
M  V30 995 1 111 116
M  V30 996 1 111 117
M  V30 997 1 111 185
M  V30 998 1 111 186
M  V30 999 1 111 189
M  V30 1000 1 111 190
M  V30 1001 1 111 191
M  V30 1002 1 112 115
M  V30 1003 1 112 197
M  V30 1004 1 112 213
M  V30 1005 1 112 215
M  V30 1006 1 113 116
M  V30 1007 1 113 117
M  V30 1008 1 113 118
M  V30 1009 1 113 185
M  V30 1010 1 113 186
M  V30 1011 1 113 190
M  V30 1012 1 113 191
M  V30 1013 1 113 192
M  V30 1014 1 114 115
M  V30 1015 1 114 120
M  V30 1016 1 114 121
M  V30 1017 1 114 122
M  V30 1018 1 114 213
M  V30 1019 1 114 218
M  V30 1020 1 114 220
M  V30 1021 1 114 222
M  V30 1022 1 115 121
M  V30 1023 1 115 122
M  V30 1024 1 115 124
M  V30 1025 1 115 197
M  V30 1026 1 115 213
M  V30 1027 1 115 215
M  V30 1028 1 115 220
M  V30 1029 1 115 222
M  V30 1030 1 115 224
M  V30 1031 1 104 116
M  V30 1032 1 116 117
M  V30 1033 1 116 123
M  V30 1034 1 116 185
M  V30 1035 1 116 186
M  V30 1036 1 116 189
M  V30 1037 1 116 190
M  V30 1038 1 116 191
M  V30 1039 1 116 198
M  V30 1040 1 116 199
M  V30 1041 1 104 117
M  V30 1042 1 105 117
M  V30 1043 1 117 118
M  V30 1044 1 117 123
M  V30 1045 1 117 185
M  V30 1046 1 117 186
M  V30 1047 1 117 190
M  V30 1048 1 117 191
M  V30 1049 1 117 192
M  V30 1050 1 117 199
M  V30 1051 1 117 200
M  V30 1052 1 104 118
M  V30 1053 1 105 118
M  V30 1054 1 106 118
M  V30 1055 1 118 186
M  V30 1056 1 118 191
M  V30 1057 1 118 192
M  V30 1058 1 118 193
M  V30 1059 1 118 199
M  V30 1060 1 118 200
M  V30 1061 1 118 201
M  V30 1062 1 119 187
M  V30 1063 1 119 194
M  V30 1064 1 119 196
M  V30 1065 1 99 120
M  V30 1066 1 100 120
M  V30 1067 1 120 121
M  V30 1068 1 120 218
M  V30 1069 1 120 220
M  V30 1070 1 120 230
M  V30 1071 1 120 232
M  V30 1072 1 99 121
M  V30 1073 1 100 121
M  V30 1074 1 101 121
M  V30 1075 1 121 122
M  V30 1076 1 121 209
M  V30 1077 1 121 213
M  V30 1078 1 121 218
M  V30 1079 1 121 220
M  V30 1080 1 121 222
M  V30 1081 1 121 230
M  V30 1082 1 121 232
M  V30 1083 1 100 122
M  V30 1084 1 101 122
M  V30 1085 1 102 122
M  V30 1086 1 122 124
M  V30 1087 1 122 209
M  V30 1088 1 122 213
M  V30 1089 1 122 215
M  V30 1090 1 122 220
M  V30 1091 1 122 222
M  V30 1092 1 122 224
M  V30 1093 1 122 232
M  V30 1094 1 104 123
M  V30 1095 1 123 189
M  V30 1096 1 123 190
M  V30 1097 1 123 191
M  V30 1098 1 123 198
M  V30 1099 1 123 199
M  V30 1100 1 101 124
M  V30 1101 1 102 124
M  V30 1102 1 103 124
M  V30 1103 1 124 209
M  V30 1104 1 124 213
M  V30 1105 1 124 215
M  V30 1106 1 124 222
M  V30 1107 1 124 224
M  V30 1108 1 125 126
M  V30 1109 1 125 132
M  V30 1110 1 125 133
M  V30 1111 1 125 210
M  V30 1112 1 125 217
M  V30 1113 1 125 227
M  V30 1114 1 126 127
M  V30 1115 1 126 132
M  V30 1116 1 126 133
M  V30 1117 1 126 134
M  V30 1118 1 126 210
M  V30 1119 1 126 211
M  V30 1120 1 126 217
M  V30 1121 1 126 219
M  V30 1122 1 126 227
M  V30 1123 1 126 228
M  V30 1124 1 127 133
M  V30 1125 1 127 134
M  V30 1126 1 127 210
M  V30 1127 1 127 211
M  V30 1128 1 127 217
M  V30 1129 1 127 219
M  V30 1130 1 127 227
M  V30 1131 1 127 228
M  V30 1132 1 128 129
M  V30 1133 1 128 135
M  V30 1134 1 128 136
M  V30 1135 1 128 212
M  V30 1136 1 128 214
M  V30 1137 1 128 221
M  V30 1138 1 128 223
M  V30 1139 1 128 230
M  V30 1140 1 128 232
M  V30 1141 1 129 130
M  V30 1142 1 129 135
M  V30 1143 1 129 136
M  V30 1144 1 129 159
M  V30 1145 1 129 209
M  V30 1146 1 129 212
M  V30 1147 1 129 214
M  V30 1148 1 129 216
M  V30 1149 1 129 221
M  V30 1150 1 129 223
M  V30 1151 1 129 225
M  V30 1152 1 129 230
M  V30 1153 1 129 232
M  V30 1154 1 130 131
M  V30 1155 1 130 136
M  V30 1156 1 130 159
M  V30 1157 1 130 161
M  V30 1158 1 130 209
M  V30 1159 1 130 214
M  V30 1160 1 130 216
M  V30 1161 1 130 223
M  V30 1162 1 130 225
M  V30 1163 1 130 226
M  V30 1164 1 130 232
M  V30 1165 1 131 159
M  V30 1166 1 131 161
M  V30 1167 1 131 163
M  V30 1168 1 131 209
M  V30 1169 1 131 216
M  V30 1170 1 131 225
M  V30 1171 1 131 226
M  V30 1172 1 132 133
M  V30 1173 1 132 165
M  V30 1174 1 132 167
M  V30 1175 1 132 169
M  V30 1176 1 132 210
M  V30 1177 1 132 217
M  V30 1178 1 132 229
M  V30 1179 1 133 134
M  V30 1180 1 133 167
M  V30 1181 1 133 169
M  V30 1182 1 133 171
M  V30 1183 1 133 210
M  V30 1184 1 133 211
M  V30 1185 1 133 217
M  V30 1186 1 133 219
M  V30 1187 1 133 229
M  V30 1188 1 133 231
M  V30 1189 1 134 169
M  V30 1190 1 134 171
M  V30 1191 1 134 210
M  V30 1192 1 134 211
M  V30 1193 1 134 217
M  V30 1194 1 134 219
M  V30 1195 1 134 229
M  V30 1196 1 134 231
M  V30 1197 1 135 136
M  V30 1198 1 135 173
M  V30 1199 1 135 175
M  V30 1200 1 135 212
M  V30 1201 1 135 214
M  V30 1202 1 135 221
M  V30 1203 1 135 223
M  V30 1204 1 136 159
M  V30 1205 1 136 173
M  V30 1206 1 136 175
M  V30 1207 1 136 176
M  V30 1208 1 136 212
M  V30 1209 1 136 214
M  V30 1210 1 136 216
M  V30 1211 1 136 221
M  V30 1212 1 136 223
M  V30 1213 1 136 225
M  V30 1214 1 137 233
M  V30 1215 1 137 246
M  V30 1216 1 137 251
M  V30 1217 1 137 138
M  V30 1218 1 138 139
M  V30 1219 1 138 144
M  V30 1220 1 138 145
M  V30 1221 1 138 233
M  V30 1222 1 138 239
M  V30 1223 1 138 240
M  V30 1224 1 138 245
M  V30 1225 1 138 246
M  V30 1226 1 137 139
M  V30 1227 1 139 140
M  V30 1228 1 139 145
M  V30 1229 1 139 233
M  V30 1230 1 139 240
M  V30 1231 1 139 241
M  V30 1232 1 139 246
M  V30 1233 1 139 251
M  V30 1234 1 137 140
M  V30 1235 1 140 141
M  V30 1236 1 140 179
M  V30 1237 1 140 240
M  V30 1238 1 140 241
M  V30 1239 1 140 242
M  V30 1240 1 140 247
M  V30 1241 1 140 251
M  V30 1242 1 140 252
M  V30 1243 1 141 142
M  V30 1244 1 141 179
M  V30 1245 1 141 241
M  V30 1246 1 141 242
M  V30 1247 1 141 243
M  V30 1248 1 141 247
M  V30 1249 1 141 248
M  V30 1250 1 141 251
M  V30 1251 1 141 252
M  V30 1252 1 141 253
M  V30 1253 1 142 143
M  V30 1254 1 142 179
M  V30 1255 1 142 180
M  V30 1256 1 142 242
M  V30 1257 1 142 243
M  V30 1258 1 142 244
M  V30 1259 1 142 247
M  V30 1260 1 142 248
M  V30 1261 1 142 249
M  V30 1262 1 142 252
M  V30 1263 1 142 253
M  V30 1264 1 143 180
M  V30 1265 1 143 243
M  V30 1266 1 143 244
M  V30 1267 1 143 248
M  V30 1268 1 143 249
M  V30 1269 1 143 253
M  V30 1270 1 144 145
M  V30 1271 1 144 182
M  V30 1272 1 144 233
M  V30 1273 1 144 245
M  V30 1274 1 144 246
M  V30 1275 1 144 254
M  V30 1276 1 137 145
M  V30 1277 1 145 182
M  V30 1278 1 145 233
M  V30 1279 1 145 245
M  V30 1280 1 145 246
M  V30 1281 1 145 254
M  V30 1282 1 146 147
M  V30 1283 1 146 154
M  V30 1284 1 146 155
M  V30 1285 1 146 202
M  V30 1286 1 146 203
M  V30 1287 1 146 226
M  V30 1288 1 146 234
M  V30 1289 1 147 148
M  V30 1290 1 147 154
M  V30 1291 1 147 155
M  V30 1292 1 147 156
M  V30 1293 1 147 202
M  V30 1294 1 147 203
M  V30 1295 1 147 204
M  V30 1296 1 147 234
M  V30 1297 1 147 235
M  V30 1298 1 148 149
M  V30 1299 1 148 155
M  V30 1300 1 148 156
M  V30 1301 1 148 157
M  V30 1302 1 148 203
M  V30 1303 1 148 204
M  V30 1304 1 148 205
M  V30 1305 1 148 229
M  V30 1306 1 148 234
M  V30 1307 1 148 235
M  V30 1308 1 148 236
M  V30 1309 1 149 150
M  V30 1310 1 149 156
M  V30 1311 1 149 157
M  V30 1312 1 149 158
M  V30 1313 1 149 204
M  V30 1314 1 149 205
M  V30 1315 1 149 206
M  V30 1316 1 149 229
M  V30 1317 1 149 231
M  V30 1318 1 149 235
M  V30 1319 1 149 236
M  V30 1320 1 149 237
M  V30 1321 1 150 157
M  V30 1322 1 150 158
M  V30 1323 1 150 205
M  V30 1324 1 150 206
M  V30 1325 1 150 229
M  V30 1326 1 150 231
M  V30 1327 1 150 236
M  V30 1328 1 150 237
M  V30 1329 1 151 152
M  V30 1330 1 151 160
M  V30 1331 1 151 207
M  V30 1332 1 151 208
M  V30 1333 1 151 238
M  V30 1334 1 152 153
M  V30 1335 1 152 160
M  V30 1336 1 152 162
M  V30 1337 1 152 207
M  V30 1338 1 152 208
M  V30 1339 1 152 238
M  V30 1340 1 152 239
M  V30 1341 1 153 160
M  V30 1342 1 153 162
M  V30 1343 1 153 164
M  V30 1344 1 153 208
M  V30 1345 1 153 238
M  V30 1346 1 153 239
M  V30 1347 1 154 155
M  V30 1348 1 154 164
M  V30 1349 1 154 166
M  V30 1350 1 154 168
M  V30 1351 1 154 202
M  V30 1352 1 154 203
M  V30 1353 1 154 234
M  V30 1354 1 154 240
M  V30 1355 1 154 241
M  V30 1356 1 155 156
M  V30 1357 1 155 166
M  V30 1358 1 155 168
M  V30 1359 1 155 170
M  V30 1360 1 155 202
M  V30 1361 1 155 203
M  V30 1362 1 155 204
M  V30 1363 1 155 234
M  V30 1364 1 155 235
M  V30 1365 1 155 240
M  V30 1366 1 155 241
M  V30 1367 1 155 242
M  V30 1368 1 156 157
M  V30 1369 1 156 168
M  V30 1370 1 156 170
M  V30 1371 1 156 172
M  V30 1372 1 156 203
M  V30 1373 1 156 204
M  V30 1374 1 156 205
M  V30 1375 1 156 234
M  V30 1376 1 156 235
M  V30 1377 1 156 236
M  V30 1378 1 156 241
M  V30 1379 1 156 242
M  V30 1380 1 156 243
M  V30 1381 1 157 158
M  V30 1382 1 157 170
M  V30 1383 1 157 172
M  V30 1384 1 157 174
M  V30 1385 1 157 204
M  V30 1386 1 157 205
M  V30 1387 1 157 206
M  V30 1388 1 157 235
M  V30 1389 1 157 236
M  V30 1390 1 157 237
M  V30 1391 1 157 242
M  V30 1392 1 157 243
M  V30 1393 1 157 244
M  V30 1394 1 158 172
M  V30 1395 1 158 174
M  V30 1396 1 158 205
M  V30 1397 1 158 206
M  V30 1398 1 158 236
M  V30 1399 1 158 237
M  V30 1400 1 158 243
M  V30 1401 1 158 244
M  V30 1402 1 159 161
M  V30 1403 1 159 175
M  V30 1404 1 159 176
M  V30 1405 1 159 177
M  V30 1406 1 159 214
M  V30 1407 1 159 216
M  V30 1408 1 159 223
M  V30 1409 1 159 225
M  V30 1410 1 159 226
M  V30 1411 1 160 162
M  V30 1412 1 160 178
M  V30 1413 1 160 207
M  V30 1414 1 160 208
M  V30 1415 1 160 238
M  V30 1416 1 160 239
M  V30 1417 1 160 245
M  V30 1418 1 146 161
M  V30 1419 1 161 163
M  V30 1420 1 161 176
M  V30 1421 1 161 177
M  V30 1422 1 161 202
M  V30 1423 1 161 216
M  V30 1424 1 161 225
M  V30 1425 1 161 226
M  V30 1426 1 138 162
M  V30 1427 1 162 164
M  V30 1428 1 162 178
M  V30 1429 1 162 208
M  V30 1430 1 162 238
M  V30 1431 1 162 239
M  V30 1432 1 162 245
M  V30 1433 1 162 246
M  V30 1434 1 146 163
M  V30 1435 1 147 163
M  V30 1436 1 163 165
M  V30 1437 1 163 177
M  V30 1438 1 163 202
M  V30 1439 1 163 203
M  V30 1440 1 163 226
M  V30 1441 1 138 164
M  V30 1442 1 139 164
M  V30 1443 1 164 166
M  V30 1444 1 164 178
M  V30 1445 1 164 239
M  V30 1446 1 164 240
M  V30 1447 1 164 245
M  V30 1448 1 164 246
M  V30 1449 1 146 165
M  V30 1450 1 147 165
M  V30 1451 1 148 165
M  V30 1452 1 165 167
M  V30 1453 1 165 202
M  V30 1454 1 165 203
M  V30 1455 1 165 204
M  V30 1456 1 138 166
M  V30 1457 1 139 166
M  V30 1458 1 140 166
M  V30 1459 1 166 168
M  V30 1460 1 166 234
M  V30 1461 1 166 240
M  V30 1462 1 166 241
M  V30 1463 1 166 246
M  V30 1464 1 147 167
M  V30 1465 1 148 167
M  V30 1466 1 149 167
M  V30 1467 1 167 169
M  V30 1468 1 167 203
M  V30 1469 1 167 204
M  V30 1470 1 167 205
M  V30 1471 1 167 217
M  V30 1472 1 167 229
M  V30 1473 1 139 168
M  V30 1474 1 140 168
M  V30 1475 1 141 168
M  V30 1476 1 168 170
M  V30 1477 1 168 234
M  V30 1478 1 168 235
M  V30 1479 1 168 240
M  V30 1480 1 168 241
M  V30 1481 1 168 242
M  V30 1482 1 168 247
M  V30 1483 1 148 169
M  V30 1484 1 149 169
M  V30 1485 1 150 169
M  V30 1486 1 169 171
M  V30 1487 1 169 204
M  V30 1488 1 169 205
M  V30 1489 1 169 206
M  V30 1490 1 169 217
M  V30 1491 1 169 219
M  V30 1492 1 169 229
M  V30 1493 1 169 231
M  V30 1494 1 140 170
M  V30 1495 1 141 170
M  V30 1496 1 142 170
M  V30 1497 1 170 172
M  V30 1498 1 170 234
M  V30 1499 1 170 235
M  V30 1500 1 170 236
M  V30 1501 1 170 241
M  V30 1502 1 170 242
M  V30 1503 1 170 243
M  V30 1504 1 170 247
M  V30 1505 1 170 248
M  V30 1506 1 149 171
M  V30 1507 1 150 171
M  V30 1508 1 171 205
M  V30 1509 1 171 206
M  V30 1510 1 171 217
M  V30 1511 1 171 219
M  V30 1512 1 171 229
M  V30 1513 1 171 231
M  V30 1514 1 141 172
M  V30 1515 1 142 172
M  V30 1516 1 143 172
M  V30 1517 1 172 174
M  V30 1518 1 172 235
M  V30 1519 1 172 236
M  V30 1520 1 172 237
M  V30 1521 1 172 242
M  V30 1522 1 172 243
M  V30 1523 1 172 244
M  V30 1524 1 172 247
M  V30 1525 1 172 248
M  V30 1526 1 172 249
M  V30 1527 1 151 173
M  V30 1528 1 152 173
M  V30 1529 1 173 175
M  V30 1530 1 173 207
M  V30 1531 1 173 208
M  V30 1532 1 173 221
M  V30 1533 1 173 223
M  V30 1534 1 142 174
M  V30 1535 1 143 174
M  V30 1536 1 174 236
M  V30 1537 1 174 237
M  V30 1538 1 174 243
M  V30 1539 1 174 244
M  V30 1540 1 174 248
M  V30 1541 1 174 249
M  V30 1542 1 151 175
M  V30 1543 1 152 175
M  V30 1544 1 153 175
M  V30 1545 1 175 176
M  V30 1546 1 175 207
M  V30 1547 1 175 208
M  V30 1548 1 175 221
M  V30 1549 1 175 223
M  V30 1550 1 175 225
M  V30 1551 1 152 176
M  V30 1552 1 153 176
M  V30 1553 1 176 177
M  V30 1554 1 176 208
M  V30 1555 1 176 223
M  V30 1556 1 176 225
M  V30 1557 1 176 226
M  V30 1558 1 146 177
M  V30 1559 1 153 177
M  V30 1560 1 154 177
M  V30 1561 1 177 202
M  V30 1562 1 177 225
M  V30 1563 1 177 226
M  V30 1564 1 138 178
M  V30 1565 1 144 178
M  V30 1566 1 145 178
M  V30 1567 1 178 233
M  V30 1568 1 178 238
M  V30 1569 1 178 239
M  V30 1570 1 178 245
M  V30 1571 1 178 246
M  V30 1572 1 179 247
M  V30 1573 1 179 248
M  V30 1574 1 179 251
M  V30 1575 1 179 252
M  V30 1576 1 179 253
M  V30 1577 1 180 248
M  V30 1578 1 180 249
M  V30 1579 1 180 253
M  V30 1580 1 181 183
M  V30 1581 1 181 187
M  V30 1582 1 181 250
M  V30 1583 1 181 266
M  V30 1584 1 182 233
M  V30 1585 1 182 254
M  V30 1586 1 183 184
M  V30 1587 1 183 187
M  V30 1588 1 183 188
M  V30 1589 1 183 250
M  V30 1590 1 183 266
M  V30 1591 1 184 187
M  V30 1592 1 184 188
M  V30 1593 1 184 189
M  V30 1594 1 184 250
M  V30 1595 1 184 266
M  V30 1596 1 185 186
M  V30 1597 1 185 189
M  V30 1598 1 185 190
M  V30 1599 1 185 191
M  V30 1600 1 185 269
M  V30 1601 1 186 190
M  V30 1602 1 186 191
M  V30 1603 1 186 192
M  V30 1604 1 186 263
M  V30 1605 1 186 269
M  V30 1606 1 186 270
M  V30 1607 1 187 188
M  V30 1608 1 187 194
M  V30 1609 1 187 196
M  V30 1610 1 187 250
M  V30 1611 1 187 266
M  V30 1612 1 187 274
M  V30 1613 1 187 276
M  V30 1614 1 188 189
M  V30 1615 1 188 196
M  V30 1616 1 188 198
M  V30 1617 1 188 250
M  V30 1618 1 188 266
M  V30 1619 1 188 274
M  V30 1620 1 188 276
M  V30 1621 1 189 190
M  V30 1622 1 189 198
M  V30 1623 1 189 276
M  V30 1624 1 190 191
M  V30 1625 1 190 198
M  V30 1626 1 190 199
M  V30 1627 1 190 269
M  V30 1628 1 191 192
M  V30 1629 1 191 199
M  V30 1630 1 191 200
M  V30 1631 1 191 263
M  V30 1632 1 191 269
M  V30 1633 1 191 270
M  V30 1634 1 192 193
M  V30 1635 1 192 199
M  V30 1636 1 192 200
M  V30 1637 1 192 201
M  V30 1638 1 192 263
M  V30 1639 1 192 264
M  V30 1640 1 192 269
M  V30 1641 1 192 270
M  V30 1642 1 192 271
M  V30 1643 1 192 279
M  V30 1644 1 193 200
M  V30 1645 1 193 201
M  V30 1646 1 193 263
M  V30 1647 1 193 264
M  V30 1648 1 193 265
M  V30 1649 1 193 270
M  V30 1650 1 193 271
M  V30 1651 1 193 272
M  V30 1652 1 193 279
M  V30 1653 1 193 281
M  V30 1654 1 194 196
M  V30 1655 1 194 266
M  V30 1656 1 194 274
M  V30 1657 1 183 195
M  V30 1658 1 184 195
M  V30 1659 1 195 250
M  V30 1660 1 196 266
M  V30 1661 1 196 274
M  V30 1662 1 196 276
M  V30 1663 1 197 213
M  V30 1664 1 197 215
M  V30 1665 1 197 261
M  V30 1666 1 197 262
M  V30 1667 1 197 268
M  V30 1668 1 198 276
M  V30 1669 1 199 200
M  V30 1670 1 199 269
M  V30 1671 1 199 270
M  V30 1672 1 200 201
M  V30 1673 1 200 269
M  V30 1674 1 200 270
M  V30 1675 1 200 271
M  V30 1676 1 200 279
M  V30 1677 1 201 270
M  V30 1678 1 201 271
M  V30 1679 1 201 272
M  V30 1680 1 201 279
M  V30 1681 1 201 281
M  V30 1682 1 202 203
M  V30 1683 1 202 234
M  V30 1684 1 202 288
M  V30 1685 1 202 289
M  V30 1686 1 202 299
M  V30 1687 1 203 204
M  V30 1688 1 203 234
M  V30 1689 1 203 235
M  V30 1690 1 203 288
M  V30 1691 1 203 289
M  V30 1692 1 203 290
M  V30 1693 1 203 299
M  V30 1694 1 203 300
M  V30 1695 1 204 205
M  V30 1696 1 204 234
M  V30 1697 1 204 235
M  V30 1698 1 204 236
M  V30 1699 1 204 289
M  V30 1700 1 204 290
M  V30 1701 1 204 292
M  V30 1702 1 204 294
M  V30 1703 1 204 300
M  V30 1704 1 204 301
M  V30 1705 1 205 206
M  V30 1706 1 205 235
M  V30 1707 1 205 236
M  V30 1708 1 205 237
M  V30 1709 1 205 287
M  V30 1710 1 205 290
M  V30 1711 1 205 292
M  V30 1712 1 205 293
M  V30 1713 1 205 294
M  V30 1714 1 205 295
M  V30 1715 1 205 300
M  V30 1716 1 205 301
M  V30 1717 1 206 236
M  V30 1718 1 206 237
M  V30 1719 1 206 287
M  V30 1720 1 206 292
M  V30 1721 1 206 293
M  V30 1722 1 206 294
M  V30 1723 1 206 295
M  V30 1724 1 206 301
M  V30 1725 1 207 208
M  V30 1726 1 207 238
M  V30 1727 1 208 238
M  V30 1728 1 208 239
M  V30 1729 1 209 214
M  V30 1730 1 209 216
M  V30 1731 1 209 258
M  V30 1732 1 209 277
M  V30 1733 1 209 278
M  V30 1734 1 209 283
M  V30 1735 1 209 284
M  V30 1736 1 210 211
M  V30 1737 1 210 217
M  V30 1738 1 210 219
M  V30 1739 1 210 256
M  V30 1740 1 210 259
M  V30 1741 1 210 260
M  V30 1742 1 210 280
M  V30 1743 1 210 282
M  V30 1744 1 210 291
M  V30 1745 1 211 217
M  V30 1746 1 211 219
M  V30 1747 1 211 256
M  V30 1748 1 211 259
M  V30 1749 1 211 260
M  V30 1750 1 211 282
M  V30 1751 1 211 291
M  V30 1752 1 212 214
M  V30 1753 1 212 221
M  V30 1754 1 212 223
M  V30 1755 1 212 255
M  V30 1756 1 212 257
M  V30 1757 1 212 258
M  V30 1758 1 212 283
M  V30 1759 1 213 215
M  V30 1760 1 213 220
M  V30 1761 1 213 222
M  V30 1762 1 213 224
M  V30 1763 1 213 261
M  V30 1764 1 213 267
M  V30 1765 1 213 268
M  V30 1766 1 213 277
M  V30 1767 1 213 278
M  V30 1768 1 214 216
M  V30 1769 1 214 221
M  V30 1770 1 214 223
M  V30 1771 1 214 225
M  V30 1772 1 214 255
M  V30 1773 1 214 257
M  V30 1774 1 214 258
M  V30 1775 1 214 283
M  V30 1776 1 214 284
M  V30 1777 1 215 222
M  V30 1778 1 215 224
M  V30 1779 1 215 261
M  V30 1780 1 215 262
M  V30 1781 1 215 268
M  V30 1782 1 215 278
M  V30 1783 1 216 223
M  V30 1784 1 216 225
M  V30 1785 1 216 226
M  V30 1786 1 216 258
M  V30 1787 1 216 283
M  V30 1788 1 216 284
M  V30 1789 1 217 219
M  V30 1790 1 217 229
M  V30 1791 1 217 231
M  V30 1792 1 217 259
M  V30 1793 1 217 260
M  V30 1794 1 217 291
M  V30 1795 1 217 294
M  V30 1796 1 217 295
M  V30 1797 1 218 220
M  V30 1798 1 218 230
M  V30 1799 1 218 232
M  V30 1800 1 218 257
M  V30 1801 1 218 258
M  V30 1802 1 218 267
M  V30 1803 1 218 275
M  V30 1804 1 218 277
M  V30 1805 1 219 229
M  V30 1806 1 219 231
M  V30 1807 1 219 259
M  V30 1808 1 219 260
M  V30 1809 1 219 291
M  V30 1810 1 219 294
M  V30 1811 1 219 295
M  V30 1812 1 209 220
M  V30 1813 1 220 222
M  V30 1814 1 220 230
M  V30 1815 1 220 232
M  V30 1816 1 220 257
M  V30 1817 1 220 258
M  V30 1818 1 220 267
M  V30 1819 1 220 268
M  V30 1820 1 220 275
M  V30 1821 1 220 277
M  V30 1822 1 220 278
M  V30 1823 1 221 223
M  V30 1824 1 221 255
M  V30 1825 1 221 283
M  V30 1826 1 209 222
M  V30 1827 1 222 224
M  V30 1828 1 222 232
M  V30 1829 1 222 258
M  V30 1830 1 222 267
M  V30 1831 1 222 268
M  V30 1832 1 222 277
M  V30 1833 1 222 278
M  V30 1834 1 223 225
M  V30 1835 1 223 255
M  V30 1836 1 223 283
M  V30 1837 1 223 284
M  V30 1838 1 209 224
M  V30 1839 1 224 268
M  V30 1840 1 224 278
M  V30 1841 1 225 226
M  V30 1842 1 225 283
M  V30 1843 1 225 284
M  V30 1844 1 202 226
M  V30 1845 1 226 284
M  V30 1846 1 226 299
M  V30 1847 1 210 227
M  V30 1848 1 211 227
M  V30 1849 1 227 228
M  V30 1850 1 227 256
M  V30 1851 1 227 259
M  V30 1852 1 227 260
M  V30 1853 1 227 273
M  V30 1854 1 227 280
M  V30 1855 1 227 282
M  V30 1856 1 210 228
M  V30 1857 1 211 228
M  V30 1858 1 228 256
M  V30 1859 1 228 259
M  V30 1860 1 228 260
M  V30 1861 1 228 273
M  V30 1862 1 228 282
M  V30 1863 1 204 229
M  V30 1864 1 205 229
M  V30 1865 1 206 229
M  V30 1866 1 229 231
M  V30 1867 1 229 287
M  V30 1868 1 229 291
M  V30 1869 1 229 294
M  V30 1870 1 229 295
M  V30 1871 1 229 300
M  V30 1872 1 229 301
M  V30 1873 1 212 230
M  V30 1874 1 214 230
M  V30 1875 1 230 232
M  V30 1876 1 230 255
M  V30 1877 1 230 257
M  V30 1878 1 230 258
M  V30 1879 1 230 275
M  V30 1880 1 230 277
M  V30 1881 1 230 283
M  V30 1882 1 205 231
M  V30 1883 1 206 231
M  V30 1884 1 231 287
M  V30 1885 1 231 291
M  V30 1886 1 231 294
M  V30 1887 1 231 295
M  V30 1888 1 231 301
M  V30 1889 1 209 232
M  V30 1890 1 212 232
M  V30 1891 1 214 232
M  V30 1892 1 216 232
M  V30 1893 1 232 255
M  V30 1894 1 232 257
M  V30 1895 1 232 258
M  V30 1896 1 232 275
M  V30 1897 1 232 277
M  V30 1898 1 232 278
M  V30 1899 1 232 283
M  V30 1900 1 232 284
M  V30 1901 1 233 254
M  V30 1902 1 233 286
M  V30 1903 1 233 298
M  V30 1904 1 234 235
M  V30 1905 1 234 240
M  V30 1906 1 234 241
M  V30 1907 1 234 242
M  V30 1908 1 234 288
M  V30 1909 1 234 289
M  V30 1910 1 234 290
M  V30 1911 1 234 299
M  V30 1912 1 234 300
M  V30 1913 1 235 236
M  V30 1914 1 235 241
M  V30 1915 1 235 242
M  V30 1916 1 235 243
M  V30 1917 1 235 289
M  V30 1918 1 235 290
M  V30 1919 1 235 292
M  V30 1920 1 235 296
M  V30 1921 1 235 300
M  V30 1922 1 235 301
M  V30 1923 1 236 237
M  V30 1924 1 236 242
M  V30 1925 1 236 243
M  V30 1926 1 236 244
M  V30 1927 1 236 287
M  V30 1928 1 236 290
M  V30 1929 1 236 292
M  V30 1930 1 236 293
M  V30 1931 1 236 296
M  V30 1932 1 236 297
M  V30 1933 1 236 300
M  V30 1934 1 236 301
M  V30 1935 1 237 243
M  V30 1936 1 237 244
M  V30 1937 1 237 287
M  V30 1938 1 237 292
M  V30 1939 1 237 293
M  V30 1940 1 237 296
M  V30 1941 1 237 297
M  V30 1942 1 237 301
M  V30 1943 1 238 239
M  V30 1944 1 238 245
M  V30 1945 1 238 298
M  V30 1946 1 239 245
M  V30 1947 1 239 246
M  V30 1948 1 239 298
M  V30 1949 1 240 241
M  V30 1950 1 240 246
M  V30 1951 1 240 288
M  V30 1952 1 240 289
M  V30 1953 1 241 242
M  V30 1954 1 241 247
M  V30 1955 1 241 288
M  V30 1956 1 241 289
M  V30 1957 1 241 290
M  V30 1958 1 242 243
M  V30 1959 1 242 247
M  V30 1960 1 242 248
M  V30 1961 1 242 285
M  V30 1962 1 242 289
M  V30 1963 1 242 290
M  V30 1964 1 242 292
M  V30 1965 1 242 296
M  V30 1966 1 243 244
M  V30 1967 1 243 247
M  V30 1968 1 243 248
M  V30 1969 1 243 249
M  V30 1970 1 243 285
M  V30 1971 1 243 290
M  V30 1972 1 243 292
M  V30 1973 1 243 293
M  V30 1974 1 243 296
M  V30 1975 1 243 297
M  V30 1976 1 244 248
M  V30 1977 1 244 249
M  V30 1978 1 244 285
M  V30 1979 1 244 292
M  V30 1980 1 244 293
M  V30 1981 1 244 296
M  V30 1982 1 244 297
M  V30 1983 1 233 245
M  V30 1984 1 245 246
M  V30 1985 1 245 286
M  V30 1986 1 245 298
M  V30 1987 1 233 246
M  V30 1988 1 246 286
M  V30 1989 1 246 298
M  V30 1990 1 247 248
M  V30 1991 1 247 251
M  V30 1992 1 247 252
M  V30 1993 1 247 253
M  V30 1994 1 247 285
M  V30 1995 1 247 296
M  V30 1996 1 248 249
M  V30 1997 1 248 252
M  V30 1998 1 248 253
M  V30 1999 1 248 285
M  V30 2000 1 248 296
M  V30 2001 1 248 297
M  V30 2002 1 249 253
M  V30 2003 1 249 285
M  V30 2004 1 249 296
M  V30 2005 1 249 297
M  V30 2006 1 250 266
M  V30 2007 1 250 303
M  V30 2008 1 250 309
M  V30 2009 1 251 252
M  V30 2010 1 251 304
M  V30 2011 1 252 253
M  V30 2012 1 252 285
M  V30 2013 1 252 304
M  V30 2014 1 252 305
M  V30 2015 1 253 285
M  V30 2016 1 253 304
M  V30 2017 1 253 305
M  V30 2018 1 254 286
M  V30 2019 1 255 283
M  V30 2020 1 255 328
M  V30 2021 1 255 337
M  V30 2022 1 256 259
M  V30 2023 1 256 260
M  V30 2024 1 256 324
M  V30 2025 1 256 326
M  V30 2026 1 256 334
M  V30 2027 1 256 335
M  V30 2028 1 255 257
M  V30 2029 1 257 258
M  V30 2030 1 257 283
M  V30 2031 1 257 328
M  V30 2032 1 257 332
M  V30 2033 1 257 337
M  V30 2034 1 255 258
M  V30 2035 1 258 283
M  V30 2036 1 258 284
M  V30 2037 1 258 328
M  V30 2038 1 258 332
M  V30 2039 1 258 337
M  V30 2040 1 258 339
M  V30 2041 1 259 260
M  V30 2042 1 259 291
M  V30 2043 1 259 324
M  V30 2044 1 259 326
M  V30 2045 1 259 331
M  V30 2046 1 259 333
M  V30 2047 1 259 334
M  V30 2048 1 259 335
M  V30 2049 1 260 291
M  V30 2050 1 260 324
M  V30 2051 1 260 326
M  V30 2052 1 260 331
M  V30 2053 1 260 333
M  V30 2054 1 260 334
M  V30 2055 1 260 335
M  V30 2056 1 261 262
M  V30 2057 1 261 268
M  V30 2058 1 261 314
M  V30 2059 1 261 315
M  V30 2060 1 261 329
M  V30 2061 1 262 315
M  V30 2062 1 263 264
M  V30 2063 1 263 269
M  V30 2064 1 263 270
M  V30 2065 1 263 271
M  V30 2066 1 263 302
M  V30 2067 1 263 306
M  V30 2068 1 263 307
M  V30 2069 1 263 311
M  V30 2070 1 263 312
M  V30 2071 1 263 316
M  V30 2072 1 264 265
M  V30 2073 1 264 270
M  V30 2074 1 264 271
M  V30 2075 1 264 272
M  V30 2076 1 264 302
M  V30 2077 1 264 306
M  V30 2078 1 264 307
M  V30 2079 1 264 308
M  V30 2080 1 264 312
M  V30 2081 1 264 316
M  V30 2082 1 264 317
M  V30 2083 1 265 271
M  V30 2084 1 265 272
M  V30 2085 1 265 302
M  V30 2086 1 265 307
M  V30 2087 1 265 308
M  V30 2088 1 265 316
M  V30 2089 1 265 317
M  V30 2090 1 266 274
M  V30 2091 1 266 276
M  V30 2092 1 266 303
M  V30 2093 1 266 309
M  V30 2094 1 266 318
M  V30 2095 1 266 319
M  V30 2096 1 267 268
M  V30 2097 1 267 275
M  V30 2098 1 267 277
M  V30 2099 1 267 278
M  V30 2100 1 267 314
M  V30 2101 1 267 325
M  V30 2102 1 267 327
M  V30 2103 1 267 329
M  V30 2104 1 267 332
M  V30 2105 1 268 277
M  V30 2106 1 268 278
M  V30 2107 1 268 314
M  V30 2108 1 268 315
M  V30 2109 1 268 327
M  V30 2110 1 268 329
M  V30 2111 1 269 270
M  V30 2112 1 269 306
M  V30 2113 1 269 311
M  V30 2114 1 270 271
M  V30 2115 1 270 279
M  V30 2116 1 270 306
M  V30 2117 1 270 307
M  V30 2118 1 270 311
M  V30 2119 1 270 316
M  V30 2120 1 271 272
M  V30 2121 1 271 279
M  V30 2122 1 271 281
M  V30 2123 1 271 306
M  V30 2124 1 271 307
M  V30 2125 1 271 308
M  V30 2126 1 271 313
M  V30 2127 1 271 316
M  V30 2128 1 271 317
M  V30 2129 1 272 279
M  V30 2130 1 272 281
M  V30 2131 1 272 307
M  V30 2132 1 272 308
M  V30 2133 1 272 313
M  V30 2134 1 272 316
M  V30 2135 1 272 317
M  V30 2136 1 256 273
M  V30 2137 1 273 282
M  V30 2138 1 273 334
M  V30 2139 1 273 335
M  V30 2140 1 274 276
M  V30 2141 1 274 309
M  V30 2142 1 274 318
M  V30 2143 1 274 319
M  V30 2144 1 257 275
M  V30 2145 1 258 275
M  V30 2146 1 275 277
M  V30 2147 1 275 325
M  V30 2148 1 275 327
M  V30 2149 1 275 332
M  V30 2150 1 275 337
M  V30 2151 1 276 309
M  V30 2152 1 276 319
M  V30 2153 1 257 277
M  V30 2154 1 258 277
M  V30 2155 1 277 278
M  V30 2156 1 277 325
M  V30 2157 1 277 327
M  V30 2158 1 277 329
M  V30 2159 1 277 332
M  V30 2160 1 277 337
M  V30 2161 1 277 339
M  V30 2162 1 258 278
M  V30 2163 1 278 327
M  V30 2164 1 278 329
M  V30 2165 1 278 339
M  V30 2166 1 279 281
M  V30 2167 1 279 313
M  V30 2168 1 279 316
M  V30 2169 1 279 317
M  V30 2170 1 259 280
M  V30 2171 1 280 282
M  V30 2172 1 280 324
M  V30 2173 1 280 330
M  V30 2174 1 280 334
M  V30 2175 1 281 313
M  V30 2176 1 281 316
M  V30 2177 1 281 317
M  V30 2178 1 256 282
M  V30 2179 1 259 282
M  V30 2180 1 260 282
M  V30 2181 1 282 324
M  V30 2182 1 282 326
M  V30 2183 1 282 330
M  V30 2184 1 282 334
M  V30 2185 1 282 335
M  V30 2186 1 283 284
M  V30 2187 1 283 328
M  V30 2188 1 283 337
M  V30 2189 1 283 339
M  V30 2190 1 284 339
M  V30 2191 1 285 342
M  V30 2192 1 285 350
M  V30 2193 1 285 359
M  V30 2194 1 286 344
M  V30 2195 1 286 352
M  V30 2196 1 286 353
M  V30 2197 1 286 360
M  V30 2198 1 286 361
M  V30 2199 1 287 292
M  V30 2200 1 287 293
M  V30 2201 1 287 322
M  V30 2202 1 287 323
M  V30 2203 1 287 336
M  V30 2204 1 287 338
M  V30 2205 1 287 340
M  V30 2206 1 287 341
M  V30 2207 1 288 289
M  V30 2208 1 288 320
M  V30 2209 1 289 290
M  V30 2210 1 289 320
M  V30 2211 1 289 321
M  V30 2212 1 290 292
M  V30 2213 1 290 296
M  V30 2214 1 290 320
M  V30 2215 1 290 321
M  V30 2216 1 290 322
M  V30 2217 1 290 340
M  V30 2218 1 291 294
M  V30 2219 1 291 295
M  V30 2220 1 291 324
M  V30 2221 1 291 326
M  V30 2222 1 291 331
M  V30 2223 1 291 333
M  V30 2224 1 291 336
M  V30 2225 1 291 338
M  V30 2226 1 292 293
M  V30 2227 1 292 296
M  V30 2228 1 292 297
M  V30 2229 1 292 321
M  V30 2230 1 292 322
M  V30 2231 1 292 323
M  V30 2232 1 292 340
M  V30 2233 1 292 341
M  V30 2234 1 292 342
M  V30 2235 1 293 296
M  V30 2236 1 293 297
M  V30 2237 1 293 322
M  V30 2238 1 293 323
M  V30 2239 1 293 340
M  V30 2240 1 293 341
M  V30 2241 1 293 342
M  V30 2242 1 287 294
M  V30 2243 1 294 295
M  V30 2244 1 294 300
M  V30 2245 1 294 301
M  V30 2246 1 294 321
M  V30 2247 1 294 322
M  V30 2248 1 294 323
M  V30 2249 1 294 331
M  V30 2250 1 294 333
M  V30 2251 1 294 336
M  V30 2252 1 294 338
M  V30 2253 1 287 295
M  V30 2254 1 295 301
M  V30 2255 1 295 322
M  V30 2256 1 295 323
M  V30 2257 1 295 331
M  V30 2258 1 295 333
M  V30 2259 1 295 336
M  V30 2260 1 295 338
M  V30 2261 1 285 296
M  V30 2262 1 296 297
M  V30 2263 1 296 340
M  V30 2264 1 296 341
M  V30 2265 1 296 342
M  V30 2266 1 296 359
M  V30 2267 1 285 297
M  V30 2268 1 297 340
M  V30 2269 1 297 341
M  V30 2270 1 297 342
M  V30 2271 1 297 359
M  V30 2272 1 286 298
M  V30 2273 1 298 344
M  V30 2274 1 298 360
M  V30 2275 1 298 361
M  V30 2276 1 288 299
M  V30 2277 1 289 299
M  V30 2278 1 299 320
M  V30 2279 1 289 300
M  V30 2280 1 290 300
M  V30 2281 1 292 300
M  V30 2282 1 300 301
M  V30 2283 1 300 320
M  V30 2284 1 300 321
M  V30 2285 1 300 322
M  V30 2286 1 300 336
M  V30 2287 1 300 340
M  V30 2288 1 287 301
M  V30 2289 1 290 301
M  V30 2290 1 292 301
M  V30 2291 1 293 301
M  V30 2292 1 301 321
M  V30 2293 1 301 322
M  V30 2294 1 301 323
M  V30 2295 1 301 336
M  V30 2296 1 301 338
M  V30 2297 1 301 340
M  V30 2298 1 301 341
M  V30 2299 1 302 306
M  V30 2300 1 302 307
M  V30 2301 1 302 308
M  V30 2302 1 302 347
M  V30 2303 1 302 348
M  V30 2304 1 302 358
M  V30 2305 1 302 364
M  V30 2306 1 302 367
M  V30 2307 1 303 309
M  V30 2308 1 303 349
M  V30 2309 1 303 362
M  V30 2310 1 303 368
M  V30 2311 1 303 369
M  V30 2312 1 304 305
M  V30 2313 1 304 310
M  V30 2314 1 304 350
M  V30 2315 1 304 354
M  V30 2316 1 304 355
M  V30 2317 1 304 357
M  V30 2318 1 304 358
M  V30 2319 1 305 310
M  V30 2320 1 305 350
M  V30 2321 1 305 354
M  V30 2322 1 305 355
M  V30 2323 1 305 358
M  V30 2324 1 306 307
M  V30 2325 1 306 311
M  V30 2326 1 306 316
M  V30 2327 1 306 345
M  V30 2328 1 306 346
M  V30 2329 1 306 347
M  V30 2330 1 306 348
M  V30 2331 1 306 364
M  V30 2332 1 306 370
M  V30 2333 1 306 371
M  V30 2334 1 306 372
M  V30 2335 1 307 308
M  V30 2336 1 307 316
M  V30 2337 1 307 317
M  V30 2338 1 307 347
M  V30 2339 1 307 348
M  V30 2340 1 307 364
M  V30 2341 1 307 367
M  V30 2342 1 307 371
M  V30 2343 1 307 372
M  V30 2344 1 307 373
M  V30 2345 1 308 316
M  V30 2346 1 308 317
M  V30 2347 1 308 348
M  V30 2348 1 308 367
M  V30 2349 1 308 372
M  V30 2350 1 308 373
M  V30 2351 1 309 318
M  V30 2352 1 309 319
M  V30 2353 1 309 349
M  V30 2354 1 309 368
M  V30 2355 1 309 369
M  V30 2356 1 309 374
M  V30 2357 1 309 375
M  V30 2358 1 302 310
M  V30 2359 1 310 312
M  V30 2360 1 310 346
M  V30 2361 1 310 347
M  V30 2362 1 310 348
M  V30 2363 1 310 354
M  V30 2364 1 310 355
M  V30 2365 1 310 357
M  V30 2366 1 310 358
M  V30 2367 1 311 345
M  V30 2368 1 311 364
M  V30 2369 1 311 370
M  V30 2370 1 311 371
M  V30 2371 1 302 312
M  V30 2372 1 306 312
M  V30 2373 1 307 312
M  V30 2374 1 312 345
M  V30 2375 1 312 346
M  V30 2376 1 312 347
M  V30 2377 1 312 348
M  V30 2378 1 312 357
M  V30 2379 1 312 358
M  V30 2380 1 312 364
M  V30 2381 1 313 372
M  V30 2382 1 313 373
M  V30 2383 1 314 315
M  V30 2384 1 314 327
M  V30 2385 1 314 329
M  V30 2386 1 314 377
M  V30 2387 1 314 378
M  V30 2388 1 315 329
M  V30 2389 1 315 363
M  V30 2390 1 315 377
M  V30 2391 1 315 378
M  V30 2392 1 313 316
M  V30 2393 1 316 317
M  V30 2394 1 316 364
M  V30 2395 1 316 367
M  V30 2396 1 316 371
M  V30 2397 1 316 372
M  V30 2398 1 316 373
M  V30 2399 1 313 317
M  V30 2400 1 317 367
M  V30 2401 1 317 372
M  V30 2402 1 317 373
M  V30 2403 1 318 368
M  V30 2404 1 318 369
M  V30 2405 1 318 374
M  V30 2406 1 319 369
M  V30 2407 1 319 375
M  V30 2408 1 320 321
M  V30 2409 1 320 389
M  V30 2410 1 320 390
M  V30 2411 1 320 400
M  V30 2412 1 320 401
M  V30 2413 1 321 322
M  V30 2414 1 321 340
M  V30 2415 1 321 380
M  V30 2416 1 321 390
M  V30 2417 1 321 391
M  V30 2418 1 321 401
M  V30 2419 1 321 402
M  V30 2420 1 322 323
M  V30 2421 1 322 340
M  V30 2422 1 322 341
M  V30 2423 1 322 380
M  V30 2424 1 322 381
M  V30 2425 1 322 390
M  V30 2426 1 322 391
M  V30 2427 1 322 392
M  V30 2428 1 322 401
M  V30 2429 1 322 402
M  V30 2430 1 322 403
M  V30 2431 1 323 340
M  V30 2432 1 323 341
M  V30 2433 1 323 380
M  V30 2434 1 323 381
M  V30 2435 1 323 391
M  V30 2436 1 323 392
M  V30 2437 1 323 402
M  V30 2438 1 323 403
M  V30 2439 1 324 326
M  V30 2440 1 324 331
M  V30 2441 1 324 333
M  V30 2442 1 324 376
M  V30 2443 1 324 379
M  V30 2444 1 324 407
M  V30 2445 1 325 327
M  V30 2446 1 325 332
M  V30 2447 1 326 331
M  V30 2448 1 326 333
M  V30 2449 1 326 376
M  V30 2450 1 326 379
M  V30 2451 1 326 407
M  V30 2452 1 327 329
M  V30 2453 1 327 332
M  V30 2454 1 327 377
M  V30 2455 1 328 408
M  V30 2456 1 329 377
M  V30 2457 1 329 378
M  V30 2458 1 330 334
M  V30 2459 1 330 365
M  V30 2460 1 330 366
M  V30 2461 1 331 333
M  V30 2462 1 331 336
M  V30 2463 1 331 338
M  V30 2464 1 331 379
M  V30 2465 1 331 380
M  V30 2466 1 331 381
M  V30 2467 1 331 407
M  V30 2468 1 332 337
M  V30 2469 1 333 336
M  V30 2470 1 333 338
M  V30 2471 1 333 379
M  V30 2472 1 333 380
M  V30 2473 1 333 381
M  V30 2474 1 333 407
M  V30 2475 1 324 334
M  V30 2476 1 326 334
M  V30 2477 1 334 335
M  V30 2478 1 334 376
M  V30 2479 1 334 407
M  V30 2480 1 324 335
M  V30 2481 1 326 335
M  V30 2482 1 335 376
M  V30 2483 1 335 407
M  V30 2484 1 321 336
M  V30 2485 1 322 336
M  V30 2486 1 323 336
M  V30 2487 1 336 338
M  V30 2488 1 336 379
M  V30 2489 1 336 380
M  V30 2490 1 336 381
M  V30 2491 1 336 401
M  V30 2492 1 336 402
M  V30 2493 1 336 403
M  V30 2494 1 328 337
M  V30 2495 1 337 408
M  V30 2496 1 322 338
M  V30 2497 1 323 338
M  V30 2498 1 338 379
M  V30 2499 1 338 380
M  V30 2500 1 338 381
M  V30 2501 1 338 402
M  V30 2502 1 338 403
M  V30 2503 1 339 409
M  V30 2504 1 340 341
M  V30 2505 1 340 342
M  V30 2506 1 340 390
M  V30 2507 1 340 391
M  V30 2508 1 340 392
M  V30 2509 1 340 395
M  V30 2510 1 340 396
M  V30 2511 1 340 401
M  V30 2512 1 340 402
M  V30 2513 1 340 403
M  V30 2514 1 341 342
M  V30 2515 1 341 391
M  V30 2516 1 341 392
M  V30 2517 1 341 395
M  V30 2518 1 341 396
M  V30 2519 1 341 402
M  V30 2520 1 341 403
M  V30 2521 1 342 359
M  V30 2522 1 342 391
M  V30 2523 1 342 392
M  V30 2524 1 342 395
M  V30 2525 1 342 396
M  V30 2526 1 342 404
M  V30 2527 1 343 344
M  V30 2528 1 343 360
M  V30 2529 1 343 393
M  V30 2530 1 343 394
M  V30 2531 1 343 397
M  V30 2532 1 343 398
M  V30 2533 1 343 405
M  V30 2534 1 343 406
M  V30 2535 1 344 360
M  V30 2536 1 344 361
M  V30 2537 1 344 382
M  V30 2538 1 344 393
M  V30 2539 1 344 394
M  V30 2540 1 344 397
M  V30 2541 1 344 398
M  V30 2542 1 344 405
M  V30 2543 1 344 406
M  V30 2544 1 345 364
M  V30 2545 1 345 370
M  V30 2546 1 345 371
M  V30 2547 1 345 413
M  V30 2548 1 345 415
M  V30 2549 1 345 421
M  V30 2550 1 345 422
M  V30 2551 1 345 423
M  V30 2552 1 345 428
M  V30 2553 1 345 429
M  V30 2554 1 345 430
M  V30 2555 1 345 346
M  V30 2556 1 346 347
M  V30 2557 1 346 364
M  V30 2558 1 346 413
M  V30 2559 1 346 415
M  V30 2560 1 346 417
M  V30 2561 1 346 418
M  V30 2562 1 346 421
M  V30 2563 1 346 422
M  V30 2564 1 346 423
M  V30 2565 1 345 347
M  V30 2566 1 347 348
M  V30 2567 1 347 364
M  V30 2568 1 347 415
M  V30 2569 1 347 418
M  V30 2570 1 347 422
M  V30 2571 1 347 423
M  V30 2572 1 348 364
M  V30 2573 1 348 367
M  V30 2574 1 348 423
M  V30 2575 1 349 368
M  V30 2576 1 349 369
M  V30 2577 1 349 410
M  V30 2578 1 349 419
M  V30 2579 1 350 354
M  V30 2580 1 350 355
M  V30 2581 1 350 383
M  V30 2582 1 350 384
M  V30 2583 1 350 404
M  V30 2584 1 350 414
M  V30 2585 1 351 352
M  V30 2586 1 351 356
M  V30 2587 1 351 385
M  V30 2588 1 351 405
M  V30 2589 1 351 406
M  V30 2590 1 352 353
M  V30 2591 1 352 356
M  V30 2592 1 352 382
M  V30 2593 1 352 385
M  V30 2594 1 352 386
M  V30 2595 1 352 405
M  V30 2596 1 352 406
M  V30 2597 1 352 416
M  V30 2598 1 353 356
M  V30 2599 1 353 382
M  V30 2600 1 353 385
M  V30 2601 1 353 386
M  V30 2602 1 353 387
M  V30 2603 1 353 406
M  V30 2604 1 353 416
M  V30 2605 1 354 355
M  V30 2606 1 354 357
M  V30 2607 1 354 358
M  V30 2608 1 354 383
M  V30 2609 1 354 412
M  V30 2610 1 354 414
M  V30 2611 1 354 418
M  V30 2612 1 355 358
M  V30 2613 1 355 383
M  V30 2614 1 355 384
M  V30 2615 1 355 414
M  V30 2616 1 356 362
M  V30 2617 1 356 385
M  V30 2618 1 356 386
M  V30 2619 1 356 416
M  V30 2620 1 356 419
M  V30 2621 1 346 357
M  V30 2622 1 347 357
M  V30 2623 1 357 358
M  V30 2624 1 357 411
M  V30 2625 1 357 412
M  V30 2626 1 357 414
M  V30 2627 1 357 417
M  V30 2628 1 357 418
M  V30 2629 1 357 421
M  V30 2630 1 357 422
M  V30 2631 1 357 423
M  V30 2632 1 346 358
M  V30 2633 1 347 358
M  V30 2634 1 348 358
M  V30 2635 1 358 412
M  V30 2636 1 358 414
M  V30 2637 1 358 418
M  V30 2638 1 358 422
M  V30 2639 1 358 423
M  V30 2640 1 350 359
M  V30 2641 1 359 383
M  V30 2642 1 359 384
M  V30 2643 1 359 395
M  V30 2644 1 359 396
M  V30 2645 1 359 404
M  V30 2646 1 351 360
M  V30 2647 1 352 360
M  V30 2648 1 353 360
M  V30 2649 1 360 361
M  V30 2650 1 360 382
M  V30 2651 1 360 385
M  V30 2652 1 360 386
M  V30 2653 1 360 397
M  V30 2654 1 360 398
M  V30 2655 1 360 405
M  V30 2656 1 360 406
M  V30 2657 1 352 361
M  V30 2658 1 353 361
M  V30 2659 1 361 382
M  V30 2660 1 361 385
M  V30 2661 1 361 386
M  V30 2662 1 361 387
M  V30 2663 1 361 398
M  V30 2664 1 361 406
M  V30 2665 1 349 362
M  V30 2666 1 362 410
M  V30 2667 1 362 416
M  V30 2668 1 362 419
M  V30 2669 1 363 365
M  V30 2670 1 363 425
M  V30 2671 1 363 426
M  V30 2672 1 363 449
M  V30 2673 1 364 370
M  V30 2674 1 364 371
M  V30 2675 1 364 372
M  V30 2676 1 364 415
M  V30 2677 1 364 422
M  V30 2678 1 364 423
M  V30 2679 1 364 429
M  V30 2680 1 364 430
M  V30 2681 1 365 366
M  V30 2682 1 365 425
M  V30 2683 1 365 426
M  V30 2684 1 365 449
M  V30 2685 1 365 450
M  V30 2686 1 366 426
M  V30 2687 1 366 449
M  V30 2688 1 366 450
M  V30 2689 1 367 372
M  V30 2690 1 367 373
M  V30 2691 1 368 369
M  V30 2692 1 368 374
M  V30 2693 1 369 374
M  V30 2694 1 369 375
M  V30 2695 1 369 410
M  V30 2696 1 369 431
M  V30 2697 1 370 371
M  V30 2698 1 370 413
M  V30 2699 1 370 415
M  V30 2700 1 370 428
M  V30 2701 1 370 429
M  V30 2702 1 370 430
M  V30 2703 1 370 433
M  V30 2704 1 370 434
M  V30 2705 1 370 435
M  V30 2706 1 371 372
M  V30 2707 1 371 415
M  V30 2708 1 371 429
M  V30 2709 1 371 430
M  V30 2710 1 371 434
M  V30 2711 1 371 435
M  V30 2712 1 372 373
M  V30 2713 1 372 430
M  V30 2714 1 372 435
M  V30 2715 1 375 427
M  V30 2716 1 375 431
M  V30 2717 1 375 432
M  V30 2718 1 376 407
M  V30 2719 1 376 451
M  V30 2720 1 376 458
M  V30 2721 1 376 459
M  V30 2722 1 376 465
M  V30 2723 1 376 467
M  V30 2724 1 377 378
M  V30 2725 1 377 424
M  V30 2726 1 363 378
M  V30 2727 1 378 424
M  V30 2728 1 378 425
M  V30 2729 1 379 380
M  V30 2730 1 379 381
M  V30 2731 1 379 452
M  V30 2732 1 379 453
M  V30 2733 1 379 460
M  V30 2734 1 379 461
M  V30 2735 1 379 465
M  V30 2736 1 379 467
M  V30 2737 1 380 381
M  V30 2738 1 380 401
M  V30 2739 1 380 402
M  V30 2740 1 380 403
M  V30 2741 1 380 452
M  V30 2742 1 380 453
M  V30 2743 1 380 460
M  V30 2744 1 380 461
M  V30 2745 1 380 466
M  V30 2746 1 380 468
M  V30 2747 1 380 469
M  V30 2748 1 381 402
M  V30 2749 1 381 403
M  V30 2750 1 381 452
M  V30 2751 1 381 453
M  V30 2752 1 381 460
M  V30 2753 1 381 461
M  V30 2754 1 381 468
M  V30 2755 1 381 469
M  V30 2756 1 382 385
M  V30 2757 1 382 386
M  V30 2758 1 382 387
M  V30 2759 1 382 480
M  V30 2760 1 382 481
M  V30 2761 1 382 482
M  V30 2762 1 382 485
M  V30 2763 1 382 486
M  V30 2764 1 382 493
M  V30 2765 1 382 494
M  V30 2766 1 382 495
M  V30 2767 1 383 384
M  V30 2768 1 383 414
M  V30 2769 1 383 490
M  V30 2770 1 383 491
M  V30 2771 1 383 500
M  V30 2772 1 383 502
M  V30 2773 1 384 490
M  V30 2774 1 384 491
M  V30 2775 1 384 502
M  V30 2776 1 385 386
M  V30 2777 1 385 416
M  V30 2778 1 385 480
M  V30 2779 1 385 481
M  V30 2780 1 385 487
M  V30 2781 1 385 492
M  V30 2782 1 385 493
M  V30 2783 1 385 494
M  V30 2784 1 386 387
M  V30 2785 1 386 416
M  V30 2786 1 386 480
M  V30 2787 1 386 481
M  V30 2788 1 386 482
M  V30 2789 1 386 487
M  V30 2790 1 386 488
M  V30 2791 1 386 493
M  V30 2792 1 386 494
M  V30 2793 1 386 495
M  V30 2794 1 387 411
M  V30 2795 1 387 416
M  V30 2796 1 387 417
M  V30 2797 1 387 481
M  V30 2798 1 387 482
M  V30 2799 1 387 483
M  V30 2800 1 387 487
M  V30 2801 1 387 488
M  V30 2802 1 387 489
M  V30 2803 1 387 494
M  V30 2804 1 387 495
M  V30 2805 1 387 496
M  V30 2806 1 388 389
M  V30 2807 1 388 439
M  V30 2808 1 388 440
M  V30 2809 1 388 441
M  V30 2810 1 388 463
M  V30 2811 1 388 464
M  V30 2812 1 388 470
M  V30 2813 1 388 471
M  V30 2814 1 389 440
M  V30 2815 1 389 441
M  V30 2816 1 389 442
M  V30 2817 1 389 463
M  V30 2818 1 389 464
M  V30 2819 1 389 470
M  V30 2820 1 389 471
M  V30 2821 1 390 391
M  V30 2822 1 390 395
M  V30 2823 1 390 442
M  V30 2824 1 390 443
M  V30 2825 1 390 444
M  V30 2826 1 390 466
M  V30 2827 1 390 468
M  V30 2828 1 390 472
M  V30 2829 1 390 473
M  V30 2830 1 391 392
M  V30 2831 1 391 395
M  V30 2832 1 391 396
M  V30 2833 1 391 443
M  V30 2834 1 391 444
M  V30 2835 1 391 445
M  V30 2836 1 391 466
M  V30 2837 1 391 468
M  V30 2838 1 391 469
M  V30 2839 1 391 472
M  V30 2840 1 391 473
M  V30 2841 1 391 474
M  V30 2842 1 392 395
M  V30 2843 1 392 396
M  V30 2844 1 392 444
M  V30 2845 1 392 445
M  V30 2846 1 392 468
M  V30 2847 1 392 469
M  V30 2848 1 392 473
M  V30 2849 1 392 474
M  V30 2850 1 393 394
M  V30 2851 1 393 397
M  V30 2852 1 393 398
M  V30 2853 1 393 436
M  V30 2854 1 393 437
M  V30 2855 1 393 438
M  V30 2856 1 393 446
M  V30 2857 1 393 475
M  V30 2858 1 393 485
M  V30 2859 1 394 397
M  V30 2860 1 394 398
M  V30 2861 1 394 436
M  V30 2862 1 394 437
M  V30 2863 1 394 438
M  V30 2864 1 394 439
M  V30 2865 1 394 446
M  V30 2866 1 394 475
M  V30 2867 1 394 485
M  V30 2868 1 394 486
M  V30 2869 1 395 396
M  V30 2870 1 395 404
M  V30 2871 1 395 443
M  V30 2872 1 395 444
M  V30 2873 1 395 445
M  V30 2874 1 395 472
M  V30 2875 1 395 473
M  V30 2876 1 395 474
M  V30 2877 1 395 490
M  V30 2878 1 395 491
M  V30 2879 1 396 404
M  V30 2880 1 396 444
M  V30 2881 1 396 445
M  V30 2882 1 396 473
M  V30 2883 1 396 474
M  V30 2884 1 396 490
M  V30 2885 1 396 491
M  V30 2886 1 397 398
M  V30 2887 1 397 405
M  V30 2888 1 397 406
M  V30 2889 1 397 436
M  V30 2890 1 397 446
M  V30 2891 1 397 475
M  V30 2892 1 397 485
M  V30 2893 1 397 492
M  V30 2894 1 397 493
M  V30 2895 1 382 398
M  V30 2896 1 398 405
M  V30 2897 1 398 406
M  V30 2898 1 398 436
M  V30 2899 1 398 446
M  V30 2900 1 398 475
M  V30 2901 1 398 485
M  V30 2902 1 398 486
M  V30 2903 1 398 492
M  V30 2904 1 398 493
M  V30 2905 1 398 494
M  V30 2906 1 388 399
M  V30 2907 1 389 399
M  V30 2908 1 399 400
M  V30 2909 1 399 439
M  V30 2910 1 399 440
M  V30 2911 1 399 441
M  V30 2912 1 399 455
M  V30 2913 1 399 463
M  V30 2914 1 399 464
M  V30 2915 1 388 400
M  V30 2916 1 389 400
M  V30 2917 1 400 440
M  V30 2918 1 400 441
M  V30 2919 1 400 442
M  V30 2920 1 400 463
M  V30 2921 1 400 464
M  V30 2922 1 390 401
M  V30 2923 1 391 401
M  V30 2924 1 401 402
M  V30 2925 1 401 442
M  V30 2926 1 401 443
M  V30 2927 1 401 444
M  V30 2928 1 401 460
M  V30 2929 1 401 466
M  V30 2930 1 401 468
M  V30 2931 1 390 402
M  V30 2932 1 391 402
M  V30 2933 1 392 402
M  V30 2934 1 402 403
M  V30 2935 1 402 443
M  V30 2936 1 402 444
M  V30 2937 1 402 445
M  V30 2938 1 402 460
M  V30 2939 1 402 461
M  V30 2940 1 402 466
M  V30 2941 1 402 468
M  V30 2942 1 402 469
M  V30 2943 1 391 403
M  V30 2944 1 392 403
M  V30 2945 1 403 444
M  V30 2946 1 403 445
M  V30 2947 1 403 460
M  V30 2948 1 403 461
M  V30 2949 1 403 468
M  V30 2950 1 403 469
M  V30 2951 1 383 404
M  V30 2952 1 384 404
M  V30 2953 1 404 473
M  V30 2954 1 404 474
M  V30 2955 1 404 490
M  V30 2956 1 404 491
M  V30 2957 1 404 502
M  V30 2958 1 385 405
M  V30 2959 1 405 406
M  V30 2960 1 405 475
M  V30 2961 1 405 480
M  V30 2962 1 405 485
M  V30 2963 1 405 492
M  V30 2964 1 405 493
M  V30 2965 1 382 406
M  V30 2966 1 385 406
M  V30 2967 1 386 406
M  V30 2968 1 406 475
M  V30 2969 1 406 480
M  V30 2970 1 406 481
M  V30 2971 1 406 485
M  V30 2972 1 406 486
M  V30 2973 1 406 492
M  V30 2974 1 406 493
M  V30 2975 1 406 494
M  V30 2976 1 379 407
M  V30 2977 1 407 452
M  V30 2978 1 407 453
M  V30 2979 1 407 458
M  V30 2980 1 407 459
M  V30 2981 1 407 465
M  V30 2982 1 407 467
M  V30 2983 1 408 454
M  V30 2984 1 409 447
M  V30 2985 1 409 448
M  V30 2986 1 409 455
M  V30 2987 1 410 427
M  V30 2988 1 410 476
M  V30 2989 1 410 497
M  V30 2990 1 411 412
M  V30 2991 1 411 417
M  V30 2992 1 411 418
M  V30 2993 1 411 482
M  V30 2994 1 411 483
M  V30 2995 1 411 484
M  V30 2996 1 411 488
M  V30 2997 1 411 489
M  V30 2998 1 411 495
M  V30 2999 1 411 496
M  V30 3000 1 411 498
M  V30 3001 1 412 414
M  V30 3002 1 412 417
M  V30 3003 1 412 418
M  V30 3004 1 412 483
M  V30 3005 1 412 484
M  V30 3006 1 412 489
M  V30 3007 1 412 496
M  V30 3008 1 412 498
M  V30 3009 1 412 500
M  V30 3010 1 413 415
M  V30 3011 1 413 427
M  V30 3012 1 413 428
M  V30 3013 1 413 429
M  V30 3014 1 413 476
M  V30 3015 1 413 477
M  V30 3016 1 413 478
M  V30 3017 1 413 497
M  V30 3018 1 413 499
M  V30 3019 1 413 501
M  V30 3020 1 413 503
M  V30 3021 1 413 504
M  V30 3022 1 414 418
M  V30 3023 1 414 484
M  V30 3024 1 414 498
M  V30 3025 1 414 500
M  V30 3026 1 414 502
M  V30 3027 1 415 428
M  V30 3028 1 415 429
M  V30 3029 1 415 430
M  V30 3030 1 415 477
M  V30 3031 1 415 478
M  V30 3032 1 415 479
M  V30 3033 1 415 499
M  V30 3034 1 415 501
M  V30 3035 1 415 503
M  V30 3036 1 415 504
M  V30 3037 1 415 506
M  V30 3038 1 416 419
M  V30 3039 1 416 420
M  V30 3040 1 416 480
M  V30 3041 1 416 481
M  V30 3042 1 416 482
M  V30 3043 1 416 487
M  V30 3044 1 416 488
M  V30 3045 1 416 497
M  V30 3046 1 417 418
M  V30 3047 1 417 420
M  V30 3048 1 417 421
M  V30 3049 1 417 422
M  V30 3050 1 417 482
M  V30 3051 1 417 483
M  V30 3052 1 417 484
M  V30 3053 1 417 488
M  V30 3054 1 417 489
M  V30 3055 1 417 497
M  V30 3056 1 417 499
M  V30 3057 1 417 501
M  V30 3058 1 418 421
M  V30 3059 1 418 422
M  V30 3060 1 418 423
M  V30 3061 1 418 483
M  V30 3062 1 418 484
M  V30 3063 1 418 489
M  V30 3064 1 418 499
M  V30 3065 1 418 501
M  V30 3066 1 410 419
M  V30 3067 1 419 420
M  V30 3068 1 419 476
M  V30 3069 1 419 487
M  V30 3070 1 419 488
M  V30 3071 1 419 497
M  V30 3072 1 410 420
M  V30 3073 1 413 420
M  V30 3074 1 420 421
M  V30 3075 1 420 476
M  V30 3076 1 420 477
M  V30 3077 1 420 487
M  V30 3078 1 420 488
M  V30 3079 1 420 489
M  V30 3080 1 420 497
M  V30 3081 1 420 499
M  V30 3082 1 413 421
M  V30 3083 1 415 421
M  V30 3084 1 421 422
M  V30 3085 1 421 476
M  V30 3086 1 421 477
M  V30 3087 1 421 478
M  V30 3088 1 421 488
M  V30 3089 1 421 489
M  V30 3090 1 421 497
M  V30 3091 1 421 499
M  V30 3092 1 421 501
M  V30 3093 1 413 422
M  V30 3094 1 415 422
M  V30 3095 1 422 423
M  V30 3096 1 422 477
M  V30 3097 1 422 478
M  V30 3098 1 422 479
M  V30 3099 1 422 489
M  V30 3100 1 422 499
M  V30 3101 1 422 501
M  V30 3102 1 415 423
M  V30 3103 1 423 478
M  V30 3104 1 423 479
M  V30 3105 1 423 501
M  V30 3106 1 425 426
M  V30 3107 1 425 449
M  V30 3108 1 425 505
M  V30 3109 1 426 449
M  V30 3110 1 426 450
M  V30 3111 1 426 505
M  V30 3112 1 427 428
M  V30 3113 1 427 431
M  V30 3114 1 427 432
M  V30 3115 1 427 433
M  V30 3116 1 427 476
M  V30 3117 1 427 477
M  V30 3118 1 427 503
M  V30 3119 1 427 509
M  V30 3120 1 427 510
M  V30 3121 1 428 429
M  V30 3122 1 428 432
M  V30 3123 1 428 433
M  V30 3124 1 428 434
M  V30 3125 1 428 476
M  V30 3126 1 428 477
M  V30 3127 1 428 478
M  V30 3128 1 428 503
M  V30 3129 1 428 504
M  V30 3130 1 428 509
M  V30 3131 1 428 510
M  V30 3132 1 428 512
M  V30 3133 1 429 430
M  V30 3134 1 429 433
M  V30 3135 1 429 434
M  V30 3136 1 429 435
M  V30 3137 1 429 477
M  V30 3138 1 429 478
M  V30 3139 1 429 479
M  V30 3140 1 429 503
M  V30 3141 1 429 504
M  V30 3142 1 429 506
M  V30 3143 1 429 510
M  V30 3144 1 429 512
M  V30 3145 1 429 514
M  V30 3146 1 430 434
M  V30 3147 1 430 435
M  V30 3148 1 430 478
M  V30 3149 1 430 479
M  V30 3150 1 430 504
M  V30 3151 1 430 506
M  V30 3152 1 430 507
M  V30 3153 1 430 512
M  V30 3154 1 430 514
M  V30 3155 1 431 432
M  V30 3156 1 431 509
M  V30 3157 1 432 433
M  V30 3158 1 432 503
M  V30 3159 1 432 509
M  V30 3160 1 432 510
M  V30 3161 1 433 434
M  V30 3162 1 433 503
M  V30 3163 1 433 504
M  V30 3164 1 433 509
M  V30 3165 1 433 510
M  V30 3166 1 433 512
M  V30 3167 1 434 435
M  V30 3168 1 434 503
M  V30 3169 1 434 504
M  V30 3170 1 434 506
M  V30 3171 1 434 510
M  V30 3172 1 434 512
M  V30 3173 1 434 514
M  V30 3174 1 435 504
M  V30 3175 1 435 506
M  V30 3176 1 435 507
M  V30 3177 1 435 512
M  V30 3178 1 435 514
M  V30 3179 1 436 475
M  V30 3180 1 436 485
M  V30 3181 1 436 486
M  V30 3182 1 436 538
M  V30 3183 1 436 548
M  V30 3184 1 436 549
M  V30 3185 1 436 560
M  V30 3186 1 436 437
M  V30 3187 1 437 438
M  V30 3188 1 437 446
M  V30 3189 1 437 538
M  V30 3190 1 437 546
M  V30 3191 1 437 560
M  V30 3192 1 436 438
M  V30 3193 1 438 439
M  V30 3194 1 438 446
M  V30 3195 1 438 538
M  V30 3196 1 438 546
M  V30 3197 1 438 560
M  V30 3198 1 436 439
M  V30 3199 1 439 440
M  V30 3200 1 439 470
M  V30 3201 1 440 441
M  V30 3202 1 440 470
M  V30 3203 1 440 471
M  V30 3204 1 440 539
M  V30 3205 1 440 550
M  V30 3206 1 440 565
M  V30 3207 1 441 442
M  V30 3208 1 441 470
M  V30 3209 1 441 471
M  V30 3210 1 441 539
M  V30 3211 1 441 541
M  V30 3212 1 441 550
M  V30 3213 1 441 552
M  V30 3214 1 441 565
M  V30 3215 1 441 567
M  V30 3216 1 442 443
M  V30 3217 1 442 471
M  V30 3218 1 442 472
M  V30 3219 1 442 539
M  V30 3220 1 442 541
M  V30 3221 1 442 543
M  V30 3222 1 442 550
M  V30 3223 1 442 552
M  V30 3224 1 442 554
M  V30 3225 1 442 565
M  V30 3226 1 442 567
M  V30 3227 1 442 569
M  V30 3228 1 443 444
M  V30 3229 1 443 472
M  V30 3230 1 443 473
M  V30 3231 1 443 536
M  V30 3232 1 443 541
M  V30 3233 1 443 543
M  V30 3234 1 443 545
M  V30 3235 1 443 552
M  V30 3236 1 443 554
M  V30 3237 1 443 556
M  V30 3238 1 443 567
M  V30 3239 1 443 569
M  V30 3240 1 444 445
M  V30 3241 1 444 472
M  V30 3242 1 444 473
M  V30 3243 1 444 474
M  V30 3244 1 444 536
M  V30 3245 1 444 537
M  V30 3246 1 444 543
M  V30 3247 1 444 545
M  V30 3248 1 444 547
M  V30 3249 1 444 554
M  V30 3250 1 444 556
M  V30 3251 1 444 558
M  V30 3252 1 444 569
M  V30 3253 1 445 473
M  V30 3254 1 445 474
M  V30 3255 1 445 536
M  V30 3256 1 445 537
M  V30 3257 1 445 545
M  V30 3258 1 445 547
M  V30 3259 1 445 556
M  V30 3260 1 445 558
M  V30 3261 1 436 446
M  V30 3262 1 446 475
M  V30 3263 1 446 485
M  V30 3264 1 446 538
M  V30 3265 1 446 548
M  V30 3266 1 446 549
M  V30 3267 1 446 560
M  V30 3268 1 447 448
M  V30 3269 1 447 455
M  V30 3270 1 447 519
M  V30 3271 1 447 523
M  V30 3272 1 448 455
M  V30 3273 1 448 519
M  V30 3274 1 448 520
M  V30 3275 1 448 523
M  V30 3276 1 449 450
M  V30 3277 1 449 456
M  V30 3278 1 449 457
M  V30 3279 1 449 505
M  V30 3280 1 449 513
M  V30 3281 1 449 515
M  V30 3282 1 450 456
M  V30 3283 1 450 457
M  V30 3284 1 450 458
M  V30 3285 1 450 515
M  V30 3286 1 451 458
M  V30 3287 1 451 459
M  V30 3288 1 452 453
M  V30 3289 1 452 460
M  V30 3290 1 452 461
M  V30 3291 1 452 516
M  V30 3292 1 452 517
M  V30 3293 1 452 518
M  V30 3294 1 452 521
M  V30 3295 1 452 522
M  V30 3296 1 452 525
M  V30 3297 1 452 540
M  V30 3298 1 452 542
M  V30 3299 1 452 544
M  V30 3300 1 453 460
M  V30 3301 1 453 461
M  V30 3302 1 453 516
M  V30 3303 1 453 517
M  V30 3304 1 453 518
M  V30 3305 1 453 522
M  V30 3306 1 453 542
M  V30 3307 1 453 544
M  V30 3308 1 454 462
M  V30 3309 1 454 546
M  V30 3310 1 455 463
M  V30 3311 1 455 519
M  V30 3312 1 456 457
M  V30 3313 1 456 505
M  V30 3314 1 456 513
M  V30 3315 1 456 515
M  V30 3316 1 456 524
M  V30 3317 1 456 525
M  V30 3318 1 457 458
M  V30 3319 1 457 465
M  V30 3320 1 457 515
M  V30 3321 1 457 517
M  V30 3322 1 457 524
M  V30 3323 1 457 525
M  V30 3324 1 458 459
M  V30 3325 1 458 465
M  V30 3326 1 458 467
M  V30 3327 1 458 517
M  V30 3328 1 458 518
M  V30 3329 1 458 525
M  V30 3330 1 459 465
M  V30 3331 1 459 467
M  V30 3332 1 459 517
M  V30 3333 1 459 518
M  V30 3334 1 460 461
M  V30 3335 1 460 466
M  V30 3336 1 460 468
M  V30 3337 1 460 469
M  V30 3338 1 460 516
M  V30 3339 1 460 521
M  V30 3340 1 460 522
M  V30 3341 1 460 540
M  V30 3342 1 460 542
M  V30 3343 1 460 544
M  V30 3344 1 460 554
M  V30 3345 1 460 556
M  V30 3346 1 460 558
M  V30 3347 1 461 468
M  V30 3348 1 461 469
M  V30 3349 1 461 516
M  V30 3350 1 461 522
M  V30 3351 1 461 542
M  V30 3352 1 461 544
M  V30 3353 1 461 556
M  V30 3354 1 461 558
M  V30 3355 1 437 462
M  V30 3356 1 438 462
M  V30 3357 1 462 546
M  V30 3358 1 462 560
M  V30 3359 1 439 463
M  V30 3360 1 440 463
M  V30 3361 1 441 463
M  V30 3362 1 463 464
M  V30 3363 1 463 550
M  V30 3364 1 463 565
M  V30 3365 1 440 464
M  V30 3366 1 441 464
M  V30 3367 1 442 464
M  V30 3368 1 464 550
M  V30 3369 1 464 552
M  V30 3370 1 464 565
M  V30 3371 1 464 567
M  V30 3372 1 452 465
M  V30 3373 1 453 465
M  V30 3374 1 465 467
M  V30 3375 1 465 516
M  V30 3376 1 465 517
M  V30 3377 1 465 518
M  V30 3378 1 465 521
M  V30 3379 1 465 522
M  V30 3380 1 465 525
M  V30 3381 1 442 466
M  V30 3382 1 443 466
M  V30 3383 1 444 466
M  V30 3384 1 466 468
M  V30 3385 1 466 536
M  V30 3386 1 466 540
M  V30 3387 1 466 542
M  V30 3388 1 466 552
M  V30 3389 1 466 554
M  V30 3390 1 466 556
M  V30 3391 1 466 567
M  V30 3392 1 466 569
M  V30 3393 1 452 467
M  V30 3394 1 453 467
M  V30 3395 1 467 516
M  V30 3396 1 467 517
M  V30 3397 1 467 518
M  V30 3398 1 467 522
M  V30 3399 1 443 468
M  V30 3400 1 444 468
M  V30 3401 1 445 468
M  V30 3402 1 468 469
M  V30 3403 1 468 536
M  V30 3404 1 468 537
M  V30 3405 1 468 540
M  V30 3406 1 468 542
M  V30 3407 1 468 544
M  V30 3408 1 468 554
M  V30 3409 1 468 556
M  V30 3410 1 468 558
M  V30 3411 1 468 569
M  V30 3412 1 444 469
M  V30 3413 1 445 469
M  V30 3414 1 469 536
M  V30 3415 1 469 537
M  V30 3416 1 469 542
M  V30 3417 1 469 544
M  V30 3418 1 469 556
M  V30 3419 1 469 558
M  V30 3420 1 470 471
M  V30 3421 1 470 486
M  V30 3422 1 470 539
M  V30 3423 1 470 551
M  V30 3424 1 470 553
M  V30 3425 1 470 565
M  V30 3426 1 471 539
M  V30 3427 1 471 541
M  V30 3428 1 471 551
M  V30 3429 1 471 553
M  V30 3430 1 471 555
M  V30 3431 1 471 565
M  V30 3432 1 471 567
M  V30 3433 1 472 473
M  V30 3434 1 472 490
M  V30 3435 1 472 536
M  V30 3436 1 472 541
M  V30 3437 1 472 543
M  V30 3438 1 472 545
M  V30 3439 1 472 555
M  V30 3440 1 472 557
M  V30 3441 1 472 559
M  V30 3442 1 472 567
M  V30 3443 1 472 569
M  V30 3444 1 473 474
M  V30 3445 1 473 490
M  V30 3446 1 473 491
M  V30 3447 1 473 536
M  V30 3448 1 473 537
M  V30 3449 1 473 543
M  V30 3450 1 473 545
M  V30 3451 1 473 547
M  V30 3452 1 473 557
M  V30 3453 1 473 559
M  V30 3454 1 473 561
M  V30 3455 1 473 569
M  V30 3456 1 474 490
M  V30 3457 1 474 491
M  V30 3458 1 474 536
M  V30 3459 1 474 537
M  V30 3460 1 474 545
M  V30 3461 1 474 547
M  V30 3462 1 474 559
M  V30 3463 1 474 561
M  V30 3464 1 475 485
M  V30 3465 1 475 492
M  V30 3466 1 475 493
M  V30 3467 1 475 538
M  V30 3468 1 475 548
M  V30 3469 1 475 549
M  V30 3470 1 475 562
M  V30 3471 1 475 563
M  V30 3472 1 476 477
M  V30 3473 1 476 503
M  V30 3474 1 476 575
M  V30 3475 1 476 576
M  V30 3476 1 476 577
M  V30 3477 1 476 585
M  V30 3478 1 476 596
M  V30 3479 1 476 597
M  V30 3480 1 477 478
M  V30 3481 1 477 503
M  V30 3482 1 477 504
M  V30 3483 1 477 576
M  V30 3484 1 477 577
M  V30 3485 1 477 578
M  V30 3486 1 477 585
M  V30 3487 1 477 586
M  V30 3488 1 477 596
M  V30 3489 1 477 597
M  V30 3490 1 477 598
M  V30 3491 1 478 479
M  V30 3492 1 478 503
M  V30 3493 1 478 504
M  V30 3494 1 478 506
M  V30 3495 1 478 577
M  V30 3496 1 478 578
M  V30 3497 1 478 579
M  V30 3498 1 478 582
M  V30 3499 1 478 585
M  V30 3500 1 478 586
M  V30 3501 1 478 587
M  V30 3502 1 478 597
M  V30 3503 1 478 598
M  V30 3504 1 479 504
M  V30 3505 1 479 506
M  V30 3506 1 479 507
M  V30 3507 1 479 578
M  V30 3508 1 479 579
M  V30 3509 1 479 582
M  V30 3510 1 479 583
M  V30 3511 1 479 586
M  V30 3512 1 479 587
M  V30 3513 1 479 588
M  V30 3514 1 479 598
M  V30 3515 1 480 481
M  V30 3516 1 480 487
M  V30 3517 1 480 529
M  V30 3518 1 480 530
M  V30 3519 1 480 531
M  V30 3520 1 480 562
M  V30 3521 1 480 563
M  V30 3522 1 480 564
M  V30 3523 1 480 571
M  V30 3524 1 481 482
M  V30 3525 1 481 487
M  V30 3526 1 481 488
M  V30 3527 1 481 530
M  V30 3528 1 481 531
M  V30 3529 1 481 532
M  V30 3530 1 481 563
M  V30 3531 1 481 564
M  V30 3532 1 481 566
M  V30 3533 1 481 571
M  V30 3534 1 481 572
M  V30 3535 1 482 483
M  V30 3536 1 482 487
M  V30 3537 1 482 488
M  V30 3538 1 482 489
M  V30 3539 1 482 531
M  V30 3540 1 482 532
M  V30 3541 1 482 533
M  V30 3542 1 482 564
M  V30 3543 1 482 566
M  V30 3544 1 482 568
M  V30 3545 1 482 571
M  V30 3546 1 482 572
M  V30 3547 1 482 573
M  V30 3548 1 483 484
M  V30 3549 1 483 488
M  V30 3550 1 483 489
M  V30 3551 1 483 532
M  V30 3552 1 483 533
M  V30 3553 1 483 534
M  V30 3554 1 483 566
M  V30 3555 1 483 568
M  V30 3556 1 483 570
M  V30 3557 1 483 572
M  V30 3558 1 483 573
M  V30 3559 1 483 574
M  V30 3560 1 484 489
M  V30 3561 1 484 526
M  V30 3562 1 484 533
M  V30 3563 1 484 534
M  V30 3564 1 484 535
M  V30 3565 1 484 568
M  V30 3566 1 484 570
M  V30 3567 1 484 573
M  V30 3568 1 484 574
M  V30 3569 1 485 486
M  V30 3570 1 485 492
M  V30 3571 1 485 493
M  V30 3572 1 485 494
M  V30 3573 1 485 538
M  V30 3574 1 485 548
M  V30 3575 1 485 549
M  V30 3576 1 485 562
M  V30 3577 1 485 563
M  V30 3578 1 485 564
M  V30 3579 1 486 493
M  V30 3580 1 486 494
M  V30 3581 1 486 495
M  V30 3582 1 486 549
M  V30 3583 1 486 551
M  V30 3584 1 486 563
M  V30 3585 1 486 564
M  V30 3586 1 486 566
M  V30 3587 1 487 488
M  V30 3588 1 487 497
M  V30 3589 1 487 530
M  V30 3590 1 487 531
M  V30 3591 1 487 532
M  V30 3592 1 487 571
M  V30 3593 1 487 572
M  V30 3594 1 487 575
M  V30 3595 1 487 576
M  V30 3596 1 488 489
M  V30 3597 1 488 497
M  V30 3598 1 488 499
M  V30 3599 1 488 531
M  V30 3600 1 488 532
M  V30 3601 1 488 533
M  V30 3602 1 488 571
M  V30 3603 1 488 572
M  V30 3604 1 488 573
M  V30 3605 1 488 575
M  V30 3606 1 488 576
M  V30 3607 1 488 577
M  V30 3608 1 489 497
M  V30 3609 1 489 499
M  V30 3610 1 489 501
M  V30 3611 1 489 532
M  V30 3612 1 489 533
M  V30 3613 1 489 534
M  V30 3614 1 489 572
M  V30 3615 1 489 573
M  V30 3616 1 489 574
M  V30 3617 1 489 576
M  V30 3618 1 489 577
M  V30 3619 1 489 578
M  V30 3620 1 490 491
M  V30 3621 1 490 500
M  V30 3622 1 490 502
M  V30 3623 1 490 526
M  V30 3624 1 490 527
M  V30 3625 1 490 528
M  V30 3626 1 490 543
M  V30 3627 1 490 545
M  V30 3628 1 490 547
M  V30 3629 1 490 557
M  V30 3630 1 490 559
M  V30 3631 1 490 561
M  V30 3632 1 491 502
M  V30 3633 1 491 527
M  V30 3634 1 491 528
M  V30 3635 1 491 545
M  V30 3636 1 491 547
M  V30 3637 1 491 559
M  V30 3638 1 491 561
M  V30 3639 1 480 492
M  V30 3640 1 492 493
M  V30 3641 1 492 529
M  V30 3642 1 492 530
M  V30 3643 1 492 548
M  V30 3644 1 492 549
M  V30 3645 1 492 562
M  V30 3646 1 492 563
M  V30 3647 1 480 493
M  V30 3648 1 481 493
M  V30 3649 1 493 494
M  V30 3650 1 493 529
M  V30 3651 1 493 530
M  V30 3652 1 493 531
M  V30 3653 1 493 548
M  V30 3654 1 493 549
M  V30 3655 1 493 562
M  V30 3656 1 493 563
M  V30 3657 1 493 564
M  V30 3658 1 480 494
M  V30 3659 1 481 494
M  V30 3660 1 482 494
M  V30 3661 1 494 495
M  V30 3662 1 494 530
M  V30 3663 1 494 531
M  V30 3664 1 494 532
M  V30 3665 1 494 549
M  V30 3666 1 494 551
M  V30 3667 1 494 563
M  V30 3668 1 494 564
M  V30 3669 1 494 566
M  V30 3670 1 481 495
M  V30 3671 1 482 495
M  V30 3672 1 483 495
M  V30 3673 1 495 496
M  V30 3674 1 495 531
M  V30 3675 1 495 532
M  V30 3676 1 495 533
M  V30 3677 1 495 551
M  V30 3678 1 495 553
M  V30 3679 1 495 564
M  V30 3680 1 495 566
M  V30 3681 1 495 568
M  V30 3682 1 482 496
M  V30 3683 1 483 496
M  V30 3684 1 484 496
M  V30 3685 1 496 498
M  V30 3686 1 496 532
M  V30 3687 1 496 533
M  V30 3688 1 496 534
M  V30 3689 1 496 551
M  V30 3690 1 496 553
M  V30 3691 1 496 555
M  V30 3692 1 496 566
M  V30 3693 1 496 568
M  V30 3694 1 496 570
M  V30 3695 1 476 497
M  V30 3696 1 477 497
M  V30 3697 1 497 499
M  V30 3698 1 497 571
M  V30 3699 1 497 572
M  V30 3700 1 497 573
M  V30 3701 1 497 575
M  V30 3702 1 497 576
M  V30 3703 1 497 577
M  V30 3704 1 497 596
M  V30 3705 1 497 597
M  V30 3706 1 483 498
M  V30 3707 1 484 498
M  V30 3708 1 498 500
M  V30 3709 1 498 526
M  V30 3710 1 498 533
M  V30 3711 1 498 534
M  V30 3712 1 498 535
M  V30 3713 1 498 553
M  V30 3714 1 498 555
M  V30 3715 1 498 557
M  V30 3716 1 498 568
M  V30 3717 1 498 570
M  V30 3718 1 476 499
M  V30 3719 1 477 499
M  V30 3720 1 478 499
M  V30 3721 1 499 501
M  V30 3722 1 499 572
M  V30 3723 1 499 573
M  V30 3724 1 499 574
M  V30 3725 1 499 576
M  V30 3726 1 499 577
M  V30 3727 1 499 578
M  V30 3728 1 499 596
M  V30 3729 1 499 597
M  V30 3730 1 499 598
M  V30 3731 1 484 500
M  V30 3732 1 500 502
M  V30 3733 1 500 526
M  V30 3734 1 500 527
M  V30 3735 1 500 534
M  V30 3736 1 500 535
M  V30 3737 1 500 555
M  V30 3738 1 500 557
M  V30 3739 1 500 559
M  V30 3740 1 500 570
M  V30 3741 1 477 501
M  V30 3742 1 478 501
M  V30 3743 1 479 501
M  V30 3744 1 501 573
M  V30 3745 1 501 574
M  V30 3746 1 501 577
M  V30 3747 1 501 578
M  V30 3748 1 501 579
M  V30 3749 1 501 582
M  V30 3750 1 501 597
M  V30 3751 1 501 598
M  V30 3752 1 502 526
M  V30 3753 1 502 527
M  V30 3754 1 502 528
M  V30 3755 1 502 535
M  V30 3756 1 502 557
M  V30 3757 1 502 559
M  V30 3758 1 502 561
M  V30 3759 1 503 504
M  V30 3760 1 503 509
M  V30 3761 1 503 510
M  V30 3762 1 503 512
M  V30 3763 1 503 585
M  V30 3764 1 503 586
M  V30 3765 1 503 590
M  V30 3766 1 503 591
M  V30 3767 1 503 592
M  V30 3768 1 503 596
M  V30 3769 1 503 597
M  V30 3770 1 503 598
M  V30 3771 1 504 506
M  V30 3772 1 504 510
M  V30 3773 1 504 512
M  V30 3774 1 504 514
M  V30 3775 1 504 582
M  V30 3776 1 504 585
M  V30 3777 1 504 586
M  V30 3778 1 504 587
M  V30 3779 1 504 591
M  V30 3780 1 504 592
M  V30 3781 1 504 593
M  V30 3782 1 504 597
M  V30 3783 1 504 598
M  V30 3784 1 505 511
M  V30 3785 1 505 513
M  V30 3786 1 505 515
M  V30 3787 1 505 581
M  V30 3788 1 505 612
M  V30 3789 1 505 613
M  V30 3790 1 506 507
M  V30 3791 1 506 512
M  V30 3792 1 506 514
M  V30 3793 1 506 582
M  V30 3794 1 506 583
M  V30 3795 1 506 586
M  V30 3796 1 506 587
M  V30 3797 1 506 588
M  V30 3798 1 506 592
M  V30 3799 1 506 593
M  V30 3800 1 506 594
M  V30 3801 1 506 598
M  V30 3802 1 507 508
M  V30 3803 1 507 514
M  V30 3804 1 507 582
M  V30 3805 1 507 583
M  V30 3806 1 507 584
M  V30 3807 1 507 587
M  V30 3808 1 507 588
M  V30 3809 1 507 589
M  V30 3810 1 507 593
M  V30 3811 1 507 594
M  V30 3812 1 508 583
M  V30 3813 1 508 584
M  V30 3814 1 508 588
M  V30 3815 1 508 589
M  V30 3816 1 508 594
M  V30 3817 1 509 510
M  V30 3818 1 509 585
M  V30 3819 1 509 590
M  V30 3820 1 509 591
M  V30 3821 1 510 512
M  V30 3822 1 510 585
M  V30 3823 1 510 586
M  V30 3824 1 510 590
M  V30 3825 1 510 591
M  V30 3826 1 510 592
M  V30 3827 1 511 513
M  V30 3828 1 511 523
M  V30 3829 1 511 581
M  V30 3830 1 511 611
M  V30 3831 1 511 612
M  V30 3832 1 511 613
M  V30 3833 1 511 619
M  V30 3834 1 511 620
M  V30 3835 1 512 514
M  V30 3836 1 512 585
M  V30 3837 1 512 586
M  V30 3838 1 512 587
M  V30 3839 1 512 591
M  V30 3840 1 512 592
M  V30 3841 1 512 593
M  V30 3842 1 513 515
M  V30 3843 1 513 523
M  V30 3844 1 513 524
M  V30 3845 1 513 581
M  V30 3846 1 513 612
M  V30 3847 1 513 613
M  V30 3848 1 513 619
M  V30 3849 1 513 620
M  V30 3850 1 513 621
M  V30 3851 1 514 586
M  V30 3852 1 514 587
M  V30 3853 1 514 588
M  V30 3854 1 514 592
M  V30 3855 1 514 593
M  V30 3856 1 514 594
M  V30 3857 1 515 524
M  V30 3858 1 515 525
M  V30 3859 1 515 581
M  V30 3860 1 515 613
M  V30 3861 1 515 620
M  V30 3862 1 515 621
M  V30 3863 1 516 542
M  V30 3864 1 516 544
M  V30 3865 1 516 608
M  V30 3866 1 516 610
M  V30 3867 1 516 617
M  V30 3868 1 516 618
M  V30 3869 1 516 517
M  V30 3870 1 517 518
M  V30 3871 1 517 521
M  V30 3872 1 517 522
M  V30 3873 1 517 607
M  V30 3874 1 517 608
M  V30 3875 1 517 610
M  V30 3876 1 516 518
M  V30 3877 1 518 522
M  V30 3878 1 518 608
M  V30 3879 1 518 610
M  V30 3880 1 519 619
M  V30 3881 1 519 627
M  V30 3882 1 520 606
M  V30 3883 1 520 614
M  V30 3884 1 520 615
M  V30 3885 1 520 619
M  V30 3886 1 520 620
M  V30 3887 1 520 621
M  V30 3888 1 520 627
M  V30 3889 1 520 628
M  V30 3890 1 521 522
M  V30 3891 1 521 540
M  V30 3892 1 521 542
M  V30 3893 1 521 606
M  V30 3894 1 521 607
M  V30 3895 1 521 608
M  V30 3896 1 521 615
M  V30 3897 1 521 616
M  V30 3898 1 521 617
M  V30 3899 1 521 621
M  V30 3900 1 516 522
M  V30 3901 1 522 540
M  V30 3902 1 522 542
M  V30 3903 1 522 544
M  V30 3904 1 522 607
M  V30 3905 1 522 608
M  V30 3906 1 522 610
M  V30 3907 1 522 616
M  V30 3908 1 522 617
M  V30 3909 1 522 618
M  V30 3910 1 519 523
M  V30 3911 1 520 523
M  V30 3912 1 523 611
M  V30 3913 1 523 612
M  V30 3914 1 523 613
M  V30 3915 1 523 619
M  V30 3916 1 523 620
M  V30 3917 1 523 627
M  V30 3918 1 523 628
M  V30 3919 1 520 524
M  V30 3920 1 521 524
M  V30 3921 1 524 525
M  V30 3922 1 524 606
M  V30 3923 1 524 607
M  V30 3924 1 524 613
M  V30 3925 1 524 620
M  V30 3926 1 524 621
M  V30 3927 1 524 628
M  V30 3928 1 517 525
M  V30 3929 1 521 525
M  V30 3930 1 522 525
M  V30 3931 1 525 606
M  V30 3932 1 525 607
M  V30 3933 1 525 608
M  V30 3934 1 525 621
M  V30 3935 1 526 527
M  V30 3936 1 526 534
M  V30 3937 1 526 535
M  V30 3938 1 526 641
M  V30 3939 1 526 643
M  V30 3940 1 526 645
M  V30 3941 1 526 655
M  V30 3942 1 526 657
M  V30 3943 1 526 659
M  V30 3944 1 526 670
M  V30 3945 1 526 672
M  V30 3946 1 526 674
M  V30 3947 1 527 528
M  V30 3948 1 527 535
M  V30 3949 1 527 643
M  V30 3950 1 527 645
M  V30 3951 1 527 647
M  V30 3952 1 527 657
M  V30 3953 1 527 659
M  V30 3954 1 527 661
M  V30 3955 1 527 672
M  V30 3956 1 527 674
M  V30 3957 1 527 676
M  V30 3958 1 528 645
M  V30 3959 1 528 647
M  V30 3960 1 528 659
M  V30 3961 1 528 661
M  V30 3962 1 528 674
M  V30 3963 1 528 676
M  V30 3964 1 529 530
M  V30 3965 1 529 650
M  V30 3966 1 529 663
M  V30 3967 1 529 679
M  V30 3968 1 530 531
M  V30 3969 1 530 571
M  V30 3970 1 530 650
M  V30 3971 1 530 652
M  V30 3972 1 530 663
M  V30 3973 1 530 664
M  V30 3974 1 530 679
M  V30 3975 1 530 680
M  V30 3976 1 531 532
M  V30 3977 1 531 571
M  V30 3978 1 531 572
M  V30 3979 1 531 650
M  V30 3980 1 531 652
M  V30 3981 1 531 654
M  V30 3982 1 531 663
M  V30 3983 1 531 664
M  V30 3984 1 531 666
M  V30 3985 1 531 679
M  V30 3986 1 531 680
M  V30 3987 1 531 681
M  V30 3988 1 532 533
M  V30 3989 1 532 571
M  V30 3990 1 532 572
M  V30 3991 1 532 573
M  V30 3992 1 532 639
M  V30 3993 1 532 652
M  V30 3994 1 532 654
M  V30 3995 1 532 656
M  V30 3996 1 532 664
M  V30 3997 1 532 666
M  V30 3998 1 532 668
M  V30 3999 1 532 680
M  V30 4000 1 532 681
M  V30 4001 1 533 534
M  V30 4002 1 533 572
M  V30 4003 1 533 573
M  V30 4004 1 533 574
M  V30 4005 1 533 639
M  V30 4006 1 533 641
M  V30 4007 1 533 654
M  V30 4008 1 533 656
M  V30 4009 1 533 658
M  V30 4010 1 533 666
M  V30 4011 1 533 668
M  V30 4012 1 533 670
M  V30 4013 1 533 681
M  V30 4014 1 534 535
M  V30 4015 1 534 573
M  V30 4016 1 534 574
M  V30 4017 1 534 639
M  V30 4018 1 534 641
M  V30 4019 1 534 643
M  V30 4020 1 534 656
M  V30 4021 1 534 658
M  V30 4022 1 534 660
M  V30 4023 1 534 668
M  V30 4024 1 534 670
M  V30 4025 1 534 672
M  V30 4026 1 535 574
M  V30 4027 1 535 641
M  V30 4028 1 535 643
M  V30 4029 1 535 645
M  V30 4030 1 535 658
M  V30 4031 1 535 660
M  V30 4032 1 535 662
M  V30 4033 1 535 670
M  V30 4034 1 535 672
M  V30 4035 1 535 674
M  V30 4036 1 536 537
M  V30 4037 1 536 543
M  V30 4038 1 536 545
M  V30 4039 1 536 547
M  V30 4040 1 536 601
M  V30 4041 1 536 602
M  V30 4042 1 536 603
M  V30 4043 1 536 623
M  V30 4044 1 536 624
M  V30 4045 1 536 625
M  V30 4046 1 536 640
M  V30 4047 1 536 642
M  V30 4048 1 536 644
M  V30 4049 1 537 545
M  V30 4050 1 537 547
M  V30 4051 1 537 602
M  V30 4052 1 537 603
M  V30 4053 1 537 624
M  V30 4054 1 537 625
M  V30 4055 1 537 642
M  V30 4056 1 537 644
M  V30 4057 1 538 548
M  V30 4058 1 538 549
M  V30 4059 1 538 604
M  V30 4060 1 538 626
M  V30 4061 1 538 646
M  V30 4062 1 538 648
M  V30 4063 1 539 541
M  V30 4064 1 539 551
M  V30 4065 1 539 553
M  V30 4066 1 539 555
M  V30 4067 1 539 599
M  V30 4068 1 539 600
M  V30 4069 1 539 605
M  V30 4070 1 539 629
M  V30 4071 1 539 630
M  V30 4072 1 539 651
M  V30 4073 1 539 653
M  V30 4074 1 539 655
M  V30 4075 1 540 542
M  V30 4076 1 540 552
M  V30 4077 1 540 554
M  V30 4078 1 540 556
M  V30 4079 1 540 606
M  V30 4080 1 540 607
M  V30 4081 1 540 608
M  V30 4082 1 540 615
M  V30 4083 1 540 616
M  V30 4084 1 540 617
M  V30 4085 1 540 622
M  V30 4086 1 540 623
M  V30 4087 1 540 624
M  V30 4088 1 541 543
M  V30 4089 1 541 553
M  V30 4090 1 541 555
M  V30 4091 1 541 557
M  V30 4092 1 541 599
M  V30 4093 1 541 600
M  V30 4094 1 541 601
M  V30 4095 1 541 629
M  V30 4096 1 541 630
M  V30 4097 1 541 640
M  V30 4098 1 541 653
M  V30 4099 1 541 655
M  V30 4100 1 541 657
M  V30 4101 1 542 544
M  V30 4102 1 542 554
M  V30 4103 1 542 556
M  V30 4104 1 542 558
M  V30 4105 1 542 607
M  V30 4106 1 542 608
M  V30 4107 1 542 610
M  V30 4108 1 542 616
M  V30 4109 1 542 617
M  V30 4110 1 542 618
M  V30 4111 1 542 623
M  V30 4112 1 542 624
M  V30 4113 1 542 625
M  V30 4114 1 543 545
M  V30 4115 1 543 555
M  V30 4116 1 543 557
M  V30 4117 1 543 559
M  V30 4118 1 543 600
M  V30 4119 1 543 601
M  V30 4120 1 543 602
M  V30 4121 1 543 629
M  V30 4122 1 543 640
M  V30 4123 1 543 642
M  V30 4124 1 543 655
M  V30 4125 1 543 657
M  V30 4126 1 543 659
M  V30 4127 1 544 556
M  V30 4128 1 544 558
M  V30 4129 1 544 608
M  V30 4130 1 544 610
M  V30 4131 1 544 617
M  V30 4132 1 544 618
M  V30 4133 1 544 624
M  V30 4134 1 544 625
M  V30 4135 1 545 547
M  V30 4136 1 545 557
M  V30 4137 1 545 559
M  V30 4138 1 545 561
M  V30 4139 1 545 601
M  V30 4140 1 545 602
M  V30 4141 1 545 603
M  V30 4142 1 545 640
M  V30 4143 1 545 642
M  V30 4144 1 545 644
M  V30 4145 1 545 657
M  V30 4146 1 545 659
M  V30 4147 1 545 661
M  V30 4148 1 546 560
M  V30 4149 1 546 626
M  V30 4150 1 547 559
M  V30 4151 1 547 561
M  V30 4152 1 547 602
M  V30 4153 1 547 603
M  V30 4154 1 547 642
M  V30 4155 1 547 644
M  V30 4156 1 547 659
M  V30 4157 1 547 661
M  V30 4158 1 548 549
M  V30 4159 1 548 562
M  V30 4160 1 548 563
M  V30 4161 1 548 604
M  V30 4162 1 548 646
M  V30 4163 1 548 648
M  V30 4164 1 548 663
M  V30 4165 1 549 562
M  V30 4166 1 549 563
M  V30 4167 1 549 564
M  V30 4168 1 549 604
M  V30 4169 1 549 646
M  V30 4170 1 549 648
M  V30 4171 1 549 649
M  V30 4172 1 549 663
M  V30 4173 1 549 664
M  V30 4174 1 550 552
M  V30 4175 1 550 565
M  V30 4176 1 550 567
M  V30 4177 1 550 599
M  V30 4178 1 550 600
M  V30 4179 1 550 614
M  V30 4180 1 550 615
M  V30 4181 1 550 622
M  V30 4182 1 551 553
M  V30 4183 1 551 564
M  V30 4184 1 551 566
M  V30 4185 1 551 568
M  V30 4186 1 551 605
M  V30 4187 1 551 630
M  V30 4188 1 551 649
M  V30 4189 1 551 651
M  V30 4190 1 551 653
M  V30 4191 1 551 664
M  V30 4192 1 551 666
M  V30 4193 1 551 668
M  V30 4194 1 552 554
M  V30 4195 1 552 565
M  V30 4196 1 552 567
M  V30 4197 1 552 569
M  V30 4198 1 552 599
M  V30 4199 1 552 600
M  V30 4200 1 552 601
M  V30 4201 1 552 614
M  V30 4202 1 552 615
M  V30 4203 1 552 616
M  V30 4204 1 552 622
M  V30 4205 1 552 623
M  V30 4206 1 553 555
M  V30 4207 1 553 566
M  V30 4208 1 553 568
M  V30 4209 1 553 570
M  V30 4210 1 553 605
M  V30 4211 1 553 629
M  V30 4212 1 553 630
M  V30 4213 1 553 651
M  V30 4214 1 553 653
M  V30 4215 1 553 655
M  V30 4216 1 553 666
M  V30 4217 1 553 668
M  V30 4218 1 553 670
M  V30 4219 1 536 554
M  V30 4220 1 554 556
M  V30 4221 1 554 567
M  V30 4222 1 554 569
M  V30 4223 1 554 600
M  V30 4224 1 554 601
M  V30 4225 1 554 602
M  V30 4226 1 554 615
M  V30 4227 1 554 616
M  V30 4228 1 554 617
M  V30 4229 1 554 622
M  V30 4230 1 554 623
M  V30 4231 1 554 624
M  V30 4232 1 526 555
M  V30 4233 1 555 557
M  V30 4234 1 555 568
M  V30 4235 1 555 570
M  V30 4236 1 555 629
M  V30 4237 1 555 630
M  V30 4238 1 555 640
M  V30 4239 1 555 653
M  V30 4240 1 555 655
M  V30 4241 1 555 657
M  V30 4242 1 555 668
M  V30 4243 1 555 670
M  V30 4244 1 555 672
M  V30 4245 1 536 556
M  V30 4246 1 537 556
M  V30 4247 1 556 558
M  V30 4248 1 556 569
M  V30 4249 1 556 601
M  V30 4250 1 556 602
M  V30 4251 1 556 603
M  V30 4252 1 556 616
M  V30 4253 1 556 617
M  V30 4254 1 556 618
M  V30 4255 1 556 623
M  V30 4256 1 556 624
M  V30 4257 1 556 625
M  V30 4258 1 526 557
M  V30 4259 1 527 557
M  V30 4260 1 557 559
M  V30 4261 1 557 570
M  V30 4262 1 557 629
M  V30 4263 1 557 640
M  V30 4264 1 557 642
M  V30 4265 1 557 655
M  V30 4266 1 557 657
M  V30 4267 1 557 659
M  V30 4268 1 557 670
M  V30 4269 1 557 672
M  V30 4270 1 557 674
M  V30 4271 1 536 558
M  V30 4272 1 537 558
M  V30 4273 1 558 602
M  V30 4274 1 558 603
M  V30 4275 1 558 617
M  V30 4276 1 558 618
M  V30 4277 1 558 624
M  V30 4278 1 558 625
M  V30 4279 1 526 559
M  V30 4280 1 527 559
M  V30 4281 1 528 559
M  V30 4282 1 559 561
M  V30 4283 1 559 640
M  V30 4284 1 559 642
M  V30 4285 1 559 644
M  V30 4286 1 559 657
M  V30 4287 1 559 659
M  V30 4288 1 559 661
M  V30 4289 1 559 672
M  V30 4290 1 559 674
M  V30 4291 1 559 676
M  V30 4292 1 538 560
M  V30 4293 1 560 604
M  V30 4294 1 560 626
M  V30 4295 1 527 561
M  V30 4296 1 528 561
M  V30 4297 1 561 642
M  V30 4298 1 561 644
M  V30 4299 1 561 659
M  V30 4300 1 561 661
M  V30 4301 1 561 674
M  V30 4302 1 561 676
M  V30 4303 1 529 562
M  V30 4304 1 530 562
M  V30 4305 1 562 563
M  V30 4306 1 562 646
M  V30 4307 1 562 648
M  V30 4308 1 562 663
M  V30 4309 1 562 679
M  V30 4310 1 529 563
M  V30 4311 1 530 563
M  V30 4312 1 531 563
M  V30 4313 1 563 564
M  V30 4314 1 563 646
M  V30 4315 1 563 648
M  V30 4316 1 563 649
M  V30 4317 1 563 663
M  V30 4318 1 563 664
M  V30 4319 1 563 679
M  V30 4320 1 563 680
M  V30 4321 1 530 564
M  V30 4322 1 531 564
M  V30 4323 1 532 564
M  V30 4324 1 564 566
M  V30 4325 1 564 648
M  V30 4326 1 564 649
M  V30 4327 1 564 651
M  V30 4328 1 564 663
M  V30 4329 1 564 664
M  V30 4330 1 564 666
M  V30 4331 1 564 679
M  V30 4332 1 564 680
M  V30 4333 1 564 681
M  V30 4334 1 539 565
M  V30 4335 1 541 565
M  V30 4336 1 565 567
M  V30 4337 1 565 599
M  V30 4338 1 565 600
M  V30 4339 1 565 605
M  V30 4340 1 565 622
M  V30 4341 1 565 629
M  V30 4342 1 565 630
M  V30 4343 1 531 566
M  V30 4344 1 532 566
M  V30 4345 1 533 566
M  V30 4346 1 566 568
M  V30 4347 1 566 639
M  V30 4348 1 566 649
M  V30 4349 1 566 651
M  V30 4350 1 566 653
M  V30 4351 1 566 664
M  V30 4352 1 566 666
M  V30 4353 1 566 668
M  V30 4354 1 566 680
M  V30 4355 1 566 681
M  V30 4356 1 539 567
M  V30 4357 1 541 567
M  V30 4358 1 543 567
M  V30 4359 1 567 569
M  V30 4360 1 567 599
M  V30 4361 1 567 600
M  V30 4362 1 567 601
M  V30 4363 1 567 622
M  V30 4364 1 567 623
M  V30 4365 1 567 629
M  V30 4366 1 567 630
M  V30 4367 1 567 640
M  V30 4368 1 532 568
M  V30 4369 1 533 568
M  V30 4370 1 534 568
M  V30 4371 1 568 570
M  V30 4372 1 568 639
M  V30 4373 1 568 641
M  V30 4374 1 568 651
M  V30 4375 1 568 653
M  V30 4376 1 568 655
M  V30 4377 1 568 666
M  V30 4378 1 568 668
M  V30 4379 1 568 670
M  V30 4380 1 568 681
M  V30 4381 1 536 569
M  V30 4382 1 541 569
M  V30 4383 1 543 569
M  V30 4384 1 545 569
M  V30 4385 1 569 600
M  V30 4386 1 569 601
M  V30 4387 1 569 602
M  V30 4388 1 569 622
M  V30 4389 1 569 623
M  V30 4390 1 569 624
M  V30 4391 1 569 629
M  V30 4392 1 569 640
M  V30 4393 1 569 642
M  V30 4394 1 526 570
M  V30 4395 1 533 570
M  V30 4396 1 534 570
M  V30 4397 1 535 570
M  V30 4398 1 570 639
M  V30 4399 1 570 641
M  V30 4400 1 570 643
M  V30 4401 1 570 653
M  V30 4402 1 570 655
M  V30 4403 1 570 657
M  V30 4404 1 570 668
M  V30 4405 1 570 670
M  V30 4406 1 570 672
M  V30 4407 1 571 572
M  V30 4408 1 571 575
M  V30 4409 1 571 576
M  V30 4410 1 571 650
M  V30 4411 1 571 652
M  V30 4412 1 571 654
M  V30 4413 1 571 665
M  V30 4414 1 571 667
M  V30 4415 1 571 669
M  V30 4416 1 571 679
M  V30 4417 1 571 680
M  V30 4418 1 571 681
M  V30 4419 1 572 573
M  V30 4420 1 572 575
M  V30 4421 1 572 576
M  V30 4422 1 572 577
M  V30 4423 1 572 639
M  V30 4424 1 572 652
M  V30 4425 1 572 654
M  V30 4426 1 572 656
M  V30 4427 1 572 667
M  V30 4428 1 572 669
M  V30 4429 1 572 671
M  V30 4430 1 572 680
M  V30 4431 1 572 681
M  V30 4432 1 573 574
M  V30 4433 1 573 576
M  V30 4434 1 573 577
M  V30 4435 1 573 578
M  V30 4436 1 573 639
M  V30 4437 1 573 641
M  V30 4438 1 573 654
M  V30 4439 1 573 656
M  V30 4440 1 573 658
M  V30 4441 1 573 669
M  V30 4442 1 573 671
M  V30 4443 1 573 673
M  V30 4444 1 573 681
M  V30 4445 1 574 577
M  V30 4446 1 574 578
M  V30 4447 1 574 579
M  V30 4448 1 574 639
M  V30 4449 1 574 641
M  V30 4450 1 574 643
M  V30 4451 1 574 656
M  V30 4452 1 574 658
M  V30 4453 1 574 660
M  V30 4454 1 574 671
M  V30 4455 1 574 673
M  V30 4456 1 574 675
M  V30 4457 1 575 576
M  V30 4458 1 575 596
M  V30 4459 1 575 632
M  V30 4460 1 575 650
M  V30 4461 1 575 652
M  V30 4462 1 575 654
M  V30 4463 1 575 665
M  V30 4464 1 575 667
M  V30 4465 1 575 669
M  V30 4466 1 576 577
M  V30 4467 1 576 596
M  V30 4468 1 576 597
M  V30 4469 1 576 632
M  V30 4470 1 576 633
M  V30 4471 1 576 652
M  V30 4472 1 576 654
M  V30 4473 1 576 656
M  V30 4474 1 576 667
M  V30 4475 1 576 669
M  V30 4476 1 576 671
M  V30 4477 1 577 578
M  V30 4478 1 577 596
M  V30 4479 1 577 597
M  V30 4480 1 577 598
M  V30 4481 1 577 632
M  V30 4482 1 577 633
M  V30 4483 1 577 634
M  V30 4484 1 577 654
M  V30 4485 1 577 656
M  V30 4486 1 577 658
M  V30 4487 1 577 669
M  V30 4488 1 577 671
M  V30 4489 1 577 673
M  V30 4490 1 578 579
M  V30 4491 1 578 582
M  V30 4492 1 578 597
M  V30 4493 1 578 598
M  V30 4494 1 578 633
M  V30 4495 1 578 634
M  V30 4496 1 578 635
M  V30 4497 1 578 656
M  V30 4498 1 578 658
M  V30 4499 1 578 660
M  V30 4500 1 578 671
M  V30 4501 1 578 673
M  V30 4502 1 578 675
M  V30 4503 1 579 582
M  V30 4504 1 579 583
M  V30 4505 1 579 598
M  V30 4506 1 579 634
M  V30 4507 1 579 635
M  V30 4508 1 579 636
M  V30 4509 1 579 658
M  V30 4510 1 579 660
M  V30 4511 1 579 662
M  V30 4512 1 579 673
M  V30 4513 1 579 675
M  V30 4514 1 579 677
M  V30 4515 1 580 609
M  V30 4516 1 580 688
M  V30 4517 1 580 689
M  V30 4518 1 580 698
M  V30 4519 1 580 699
M  V30 4520 1 580 700
M  V30 4521 1 581 612
M  V30 4522 1 581 613
M  V30 4523 1 581 683
M  V30 4524 1 581 685
M  V30 4525 1 581 692
M  V30 4526 1 581 694
M  V30 4527 1 581 707
M  V30 4528 1 582 583
M  V30 4529 1 582 586
M  V30 4530 1 582 587
M  V30 4531 1 582 588
M  V30 4532 1 582 634
M  V30 4533 1 582 635
M  V30 4534 1 582 636
M  V30 4535 1 582 673
M  V30 4536 1 582 675
M  V30 4537 1 582 677
M  V30 4538 1 582 682
M  V30 4539 1 582 684
M  V30 4540 1 582 686
M  V30 4541 1 583 584
M  V30 4542 1 583 587
M  V30 4543 1 583 588
M  V30 4544 1 583 589
M  V30 4545 1 583 635
M  V30 4546 1 583 636
M  V30 4547 1 583 637
M  V30 4548 1 583 675
M  V30 4549 1 583 677
M  V30 4550 1 583 678
M  V30 4551 1 583 684
M  V30 4552 1 583 686
M  V30 4553 1 583 687
M  V30 4554 1 584 588
M  V30 4555 1 584 589
M  V30 4556 1 584 636
M  V30 4557 1 584 637
M  V30 4558 1 584 677
M  V30 4559 1 584 678
M  V30 4560 1 584 686
M  V30 4561 1 584 687
M  V30 4562 1 585 586
M  V30 4563 1 585 590
M  V30 4564 1 585 591
M  V30 4565 1 585 592
M  V30 4566 1 585 631
M  V30 4567 1 585 632
M  V30 4568 1 585 633
M  V30 4569 1 585 634
M  V30 4570 1 585 638
M  V30 4571 1 585 682
M  V30 4572 1 585 690
M  V30 4573 1 585 691
M  V30 4574 1 585 693
M  V30 4575 1 586 587
M  V30 4576 1 586 591
M  V30 4577 1 586 592
M  V30 4578 1 586 593
M  V30 4579 1 586 631
M  V30 4580 1 586 633
M  V30 4581 1 586 634
M  V30 4582 1 586 635
M  V30 4583 1 586 682
M  V30 4584 1 586 684
M  V30 4585 1 586 691
M  V30 4586 1 586 693
M  V30 4587 1 586 695
M  V30 4588 1 587 588
M  V30 4589 1 587 592
M  V30 4590 1 587 593
M  V30 4591 1 587 594
M  V30 4592 1 587 634
M  V30 4593 1 587 635
M  V30 4594 1 587 636
M  V30 4595 1 587 682
M  V30 4596 1 587 684
M  V30 4597 1 587 686
M  V30 4598 1 587 693
M  V30 4599 1 587 695
M  V30 4600 1 587 696
M  V30 4601 1 588 589
M  V30 4602 1 588 593
M  V30 4603 1 588 594
M  V30 4604 1 588 635
M  V30 4605 1 588 636
M  V30 4606 1 588 637
M  V30 4607 1 588 684
M  V30 4608 1 588 686
M  V30 4609 1 588 687
M  V30 4610 1 588 695
M  V30 4611 1 588 696
M  V30 4612 1 588 697
M  V30 4613 1 589 594
M  V30 4614 1 589 636
M  V30 4615 1 589 637
M  V30 4616 1 589 686
M  V30 4617 1 589 687
M  V30 4618 1 589 696
M  V30 4619 1 589 697
M  V30 4620 1 590 591
M  V30 4621 1 590 631
M  V30 4622 1 590 638
M  V30 4623 1 590 690
M  V30 4624 1 590 691
M  V30 4625 1 591 592
M  V30 4626 1 591 631
M  V30 4627 1 591 638
M  V30 4628 1 591 682
M  V30 4629 1 591 690
M  V30 4630 1 591 691
M  V30 4631 1 591 693
M  V30 4632 1 592 593
M  V30 4633 1 592 631
M  V30 4634 1 592 682
M  V30 4635 1 592 684
M  V30 4636 1 592 691
M  V30 4637 1 592 693
M  V30 4638 1 592 695
M  V30 4639 1 593 594
M  V30 4640 1 593 682
M  V30 4641 1 593 684
M  V30 4642 1 593 686
M  V30 4643 1 593 693
M  V30 4644 1 593 695
M  V30 4645 1 593 696
M  V30 4646 1 594 684
M  V30 4647 1 594 686
M  V30 4648 1 594 687
M  V30 4649 1 594 695
M  V30 4650 1 594 696
M  V30 4651 1 594 697
M  V30 4652 1 580 595
M  V30 4653 1 595 698
M  V30 4654 1 595 699
M  V30 4655 1 595 700
M  V30 4656 1 585 596
M  V30 4657 1 596 597
M  V30 4658 1 596 631
M  V30 4659 1 596 632
M  V30 4660 1 596 633
M  V30 4661 1 596 638
M  V30 4662 1 596 667
M  V30 4663 1 596 669
M  V30 4664 1 596 671
M  V30 4665 1 585 597
M  V30 4666 1 586 597
M  V30 4667 1 597 598
M  V30 4668 1 597 631
M  V30 4669 1 597 632
M  V30 4670 1 597 633
M  V30 4671 1 597 634
M  V30 4672 1 597 638
M  V30 4673 1 597 669
M  V30 4674 1 597 671
M  V30 4675 1 597 673
M  V30 4676 1 597 682
M  V30 4677 1 582 598
M  V30 4678 1 585 598
M  V30 4679 1 586 598
M  V30 4680 1 587 598
M  V30 4681 1 598 631
M  V30 4682 1 598 633
M  V30 4683 1 598 634
M  V30 4684 1 598 635
M  V30 4685 1 598 671
M  V30 4686 1 598 673
M  V30 4687 1 598 675
M  V30 4688 1 598 682
M  V30 4689 1 598 684
M  V30 4690 1 599 600
M  V30 4691 1 599 605
M  V30 4692 1 599 629
M  V30 4693 1 599 630
M  V30 4694 1 599 726
M  V30 4695 1 599 728
M  V30 4696 1 599 730
M  V30 4697 1 599 739
M  V30 4698 1 599 750
M  V30 4699 1 599 752
M  V30 4700 1 600 601
M  V30 4701 1 600 629
M  V30 4702 1 600 630
M  V30 4703 1 600 640
M  V30 4704 1 600 728
M  V30 4705 1 600 730
M  V30 4706 1 600 732
M  V30 4707 1 600 739
M  V30 4708 1 600 741
M  V30 4709 1 600 750
M  V30 4710 1 600 752
M  V30 4711 1 600 754
M  V30 4712 1 601 602
M  V30 4713 1 601 629
M  V30 4714 1 601 640
M  V30 4715 1 601 642
M  V30 4716 1 601 730
M  V30 4717 1 601 732
M  V30 4718 1 601 734
M  V30 4719 1 601 739
M  V30 4720 1 601 741
M  V30 4721 1 601 743
M  V30 4722 1 601 752
M  V30 4723 1 601 754
M  V30 4724 1 601 756
M  V30 4725 1 602 603
M  V30 4726 1 602 640
M  V30 4727 1 602 642
M  V30 4728 1 602 644
M  V30 4729 1 602 732
M  V30 4730 1 602 734
M  V30 4731 1 602 735
M  V30 4732 1 602 741
M  V30 4733 1 602 743
M  V30 4734 1 602 745
M  V30 4735 1 602 754
M  V30 4736 1 602 756
M  V30 4737 1 602 758
M  V30 4738 1 603 642
M  V30 4739 1 603 644
M  V30 4740 1 603 734
M  V30 4741 1 603 735
M  V30 4742 1 603 743
M  V30 4743 1 603 745
M  V30 4744 1 603 756
M  V30 4745 1 603 758
M  V30 4746 1 604 646
M  V30 4747 1 604 648
M  V30 4748 1 604 736
M  V30 4749 1 604 747
M  V30 4750 1 605 630
M  V30 4751 1 605 649
M  V30 4752 1 605 651
M  V30 4753 1 605 653
M  V30 4754 1 605 726
M  V30 4755 1 605 728
M  V30 4756 1 605 737
M  V30 4757 1 605 738
M  V30 4758 1 605 740
M  V30 4759 1 605 750
M  V30 4760 1 606 607
M  V30 4761 1 606 614
M  V30 4762 1 606 615
M  V30 4763 1 606 616
M  V30 4764 1 606 702
M  V30 4765 1 606 703
M  V30 4766 1 606 704
M  V30 4767 1 606 711
M  V30 4768 1 606 712
M  V30 4769 1 606 713
M  V30 4770 1 606 725
M  V30 4771 1 606 727
M  V30 4772 1 606 729
M  V30 4773 1 607 608
M  V30 4774 1 607 615
M  V30 4775 1 607 616
M  V30 4776 1 607 617
M  V30 4777 1 607 703
M  V30 4778 1 607 704
M  V30 4779 1 607 705
M  V30 4780 1 607 712
M  V30 4781 1 607 713
M  V30 4782 1 607 714
M  V30 4783 1 607 727
M  V30 4784 1 607 729
M  V30 4785 1 607 731
M  V30 4786 1 608 610
M  V30 4787 1 608 616
M  V30 4788 1 608 617
M  V30 4789 1 608 618
M  V30 4790 1 608 704
M  V30 4791 1 608 705
M  V30 4792 1 608 706
M  V30 4793 1 608 713
M  V30 4794 1 608 714
M  V30 4795 1 608 715
M  V30 4796 1 608 729
M  V30 4797 1 608 731
M  V30 4798 1 608 733
M  V30 4799 1 609 688
M  V30 4800 1 609 689
M  V30 4801 1 609 700
M  V30 4802 1 609 708
M  V30 4803 1 610 617
M  V30 4804 1 610 618
M  V30 4805 1 610 705
M  V30 4806 1 610 706
M  V30 4807 1 610 714
M  V30 4808 1 610 715
M  V30 4809 1 610 731
M  V30 4810 1 610 733
M  V30 4811 1 611 612
M  V30 4812 1 611 619
M  V30 4813 1 611 689
M  V30 4814 1 611 692
M  V30 4815 1 611 709
M  V30 4816 1 611 710
M  V30 4817 1 612 613
M  V30 4818 1 612 619
M  V30 4819 1 612 620
M  V30 4820 1 612 683
M  V30 4821 1 612 692
M  V30 4822 1 612 694
M  V30 4823 1 612 709
M  V30 4824 1 612 710
M  V30 4825 1 612 711
M  V30 4826 1 613 619
M  V30 4827 1 613 620
M  V30 4828 1 613 621
M  V30 4829 1 613 683
M  V30 4830 1 613 685
M  V30 4831 1 613 692
M  V30 4832 1 613 694
M  V30 4833 1 613 707
M  V30 4834 1 613 710
M  V30 4835 1 613 711
M  V30 4836 1 613 712
M  V30 4837 1 614 615
M  V30 4838 1 614 622
M  V30 4839 1 614 701
M  V30 4840 1 614 702
M  V30 4841 1 614 703
M  V30 4842 1 614 725
M  V30 4843 1 614 727
M  V30 4844 1 614 739
M  V30 4845 1 615 616
M  V30 4846 1 615 622
M  V30 4847 1 615 623
M  V30 4848 1 615 702
M  V30 4849 1 615 703
M  V30 4850 1 615 704
M  V30 4851 1 615 725
M  V30 4852 1 615 727
M  V30 4853 1 615 729
M  V30 4854 1 615 739
M  V30 4855 1 615 741
M  V30 4856 1 616 617
M  V30 4857 1 616 622
M  V30 4858 1 616 623
M  V30 4859 1 616 624
M  V30 4860 1 616 703
M  V30 4861 1 616 704
M  V30 4862 1 616 705
M  V30 4863 1 616 727
M  V30 4864 1 616 729
M  V30 4865 1 616 731
M  V30 4866 1 616 739
M  V30 4867 1 616 741
M  V30 4868 1 616 743
M  V30 4869 1 617 618
M  V30 4870 1 617 623
M  V30 4871 1 617 624
M  V30 4872 1 617 625
M  V30 4873 1 617 704
M  V30 4874 1 617 705
M  V30 4875 1 617 706
M  V30 4876 1 617 729
M  V30 4877 1 617 731
M  V30 4878 1 617 733
M  V30 4879 1 617 741
M  V30 4880 1 617 743
M  V30 4881 1 617 745
M  V30 4882 1 618 624
M  V30 4883 1 618 625
M  V30 4884 1 618 705
M  V30 4885 1 618 706
M  V30 4886 1 618 731
M  V30 4887 1 618 733
M  V30 4888 1 618 743
M  V30 4889 1 618 745
M  V30 4890 1 619 620
M  V30 4891 1 619 627
M  V30 4892 1 619 628
M  V30 4893 1 619 692
M  V30 4894 1 619 694
M  V30 4895 1 619 701
M  V30 4896 1 619 702
M  V30 4897 1 619 709
M  V30 4898 1 619 710
M  V30 4899 1 619 711
M  V30 4900 1 606 620
M  V30 4901 1 620 621
M  V30 4902 1 620 627
M  V30 4903 1 620 628
M  V30 4904 1 620 692
M  V30 4905 1 620 694
M  V30 4906 1 620 701
M  V30 4907 1 620 702
M  V30 4908 1 620 703
M  V30 4909 1 620 707
M  V30 4910 1 620 710
M  V30 4911 1 620 711
M  V30 4912 1 620 712
M  V30 4913 1 606 621
M  V30 4914 1 607 621
M  V30 4915 1 621 628
M  V30 4916 1 621 694
M  V30 4917 1 621 702
M  V30 4918 1 621 703
M  V30 4919 1 621 704
M  V30 4920 1 621 707
M  V30 4921 1 621 711
M  V30 4922 1 621 712
M  V30 4923 1 621 713
M  V30 4924 1 599 622
M  V30 4925 1 600 622
M  V30 4926 1 601 622
M  V30 4927 1 622 623
M  V30 4928 1 622 725
M  V30 4929 1 622 727
M  V30 4930 1 622 729
M  V30 4931 1 622 739
M  V30 4932 1 622 741
M  V30 4933 1 622 750
M  V30 4934 1 622 752
M  V30 4935 1 622 754
M  V30 4936 1 600 623
M  V30 4937 1 601 623
M  V30 4938 1 602 623
M  V30 4939 1 623 624
M  V30 4940 1 623 727
M  V30 4941 1 623 729
M  V30 4942 1 623 731
M  V30 4943 1 623 739
M  V30 4944 1 623 741
M  V30 4945 1 623 743
M  V30 4946 1 623 752
M  V30 4947 1 623 754
M  V30 4948 1 623 756
M  V30 4949 1 601 624
M  V30 4950 1 602 624
M  V30 4951 1 603 624
M  V30 4952 1 624 625
M  V30 4953 1 624 729
M  V30 4954 1 624 731
M  V30 4955 1 624 733
M  V30 4956 1 624 741
M  V30 4957 1 624 743
M  V30 4958 1 624 745
M  V30 4959 1 624 754
M  V30 4960 1 624 756
M  V30 4961 1 624 758
M  V30 4962 1 602 625
M  V30 4963 1 603 625
M  V30 4964 1 625 731
M  V30 4965 1 625 733
M  V30 4966 1 625 743
M  V30 4967 1 625 745
M  V30 4968 1 625 756
M  V30 4969 1 625 758
M  V30 4970 1 604 626
M  V30 4971 1 626 747
M  V30 4972 1 614 627
M  V30 4973 1 627 628
M  V30 4974 1 627 701
M  V30 4975 1 627 702
M  V30 4976 1 627 709
M  V30 4977 1 627 710
M  V30 4978 1 627 711
M  V30 4979 1 627 725
M  V30 4980 1 606 628
M  V30 4981 1 614 628
M  V30 4982 1 615 628
M  V30 4983 1 628 701
M  V30 4984 1 628 702
M  V30 4985 1 628 703
M  V30 4986 1 628 710
M  V30 4987 1 628 711
M  V30 4988 1 628 712
M  V30 4989 1 628 725
M  V30 4990 1 628 727
M  V30 4991 1 629 640
M  V30 4992 1 629 653
M  V30 4993 1 629 655
M  V30 4994 1 629 657
M  V30 4995 1 629 728
M  V30 4996 1 629 730
M  V30 4997 1 629 732
M  V30 4998 1 629 740
M  V30 4999 1 629 742
M  V30 5000 1 629 744
M  V30 5001 1 629 750
M  V30 5002 1 629 752
M  V30 5003 1 629 754
M  V30 5004 1 629 630
M  V30 5005 1 630 651
M  V30 5006 1 630 653
M  V30 5007 1 630 655
M  V30 5008 1 630 726
M  V30 5009 1 630 728
M  V30 5010 1 630 730
M  V30 5011 1 630 738
M  V30 5012 1 630 740
M  V30 5013 1 630 742
M  V30 5014 1 630 750
M  V30 5015 1 630 752
M  V30 5016 1 631 682
M  V30 5017 1 631 690
M  V30 5018 1 631 691
M  V30 5019 1 631 693
M  V30 5020 1 631 819
M  V30 5021 1 631 820
M  V30 5022 1 631 821
M  V30 5023 1 631 825
M  V30 5024 1 631 826
M  V30 5025 1 631 828
M  V30 5026 1 631 837
M  V30 5027 1 631 838
M  V30 5028 1 631 839
M  V30 5029 1 631 632
M  V30 5030 1 632 633
M  V30 5031 1 632 638
M  V30 5032 1 632 768
M  V30 5033 1 632 769
M  V30 5034 1 632 770
M  V30 5035 1 632 818
M  V30 5036 1 632 819
M  V30 5037 1 632 820
M  V30 5038 1 632 836
M  V30 5039 1 632 837
M  V30 5040 1 632 838
M  V30 5041 1 631 633
M  V30 5042 1 633 634
M  V30 5043 1 633 638
M  V30 5044 1 633 682
M  V30 5045 1 633 769
M  V30 5046 1 633 770
M  V30 5047 1 633 771
M  V30 5048 1 633 819
M  V30 5049 1 633 820
M  V30 5050 1 633 821
M  V30 5051 1 633 837
M  V30 5052 1 633 838
M  V30 5053 1 633 839
M  V30 5054 1 631 634
M  V30 5055 1 634 635
M  V30 5056 1 634 682
M  V30 5057 1 634 684
M  V30 5058 1 634 770
M  V30 5059 1 634 771
M  V30 5060 1 634 820
M  V30 5061 1 634 821
M  V30 5062 1 634 822
M  V30 5063 1 634 827
M  V30 5064 1 634 838
M  V30 5065 1 634 839
M  V30 5066 1 634 840
M  V30 5067 1 635 636
M  V30 5068 1 635 682
M  V30 5069 1 635 684
M  V30 5070 1 635 686
M  V30 5071 1 635 771
M  V30 5072 1 635 821
M  V30 5073 1 635 822
M  V30 5074 1 635 823
M  V30 5075 1 635 827
M  V30 5076 1 635 829
M  V30 5077 1 635 839
M  V30 5078 1 635 840
M  V30 5079 1 635 842
M  V30 5080 1 636 637
M  V30 5081 1 636 684
M  V30 5082 1 636 686
M  V30 5083 1 636 687
M  V30 5084 1 636 822
M  V30 5085 1 636 823
M  V30 5086 1 636 824
M  V30 5087 1 636 827
M  V30 5088 1 636 829
M  V30 5089 1 636 831
M  V30 5090 1 636 840
M  V30 5091 1 636 842
M  V30 5092 1 636 844
M  V30 5093 1 637 686
M  V30 5094 1 637 687
M  V30 5095 1 637 823
M  V30 5096 1 637 824
M  V30 5097 1 637 829
M  V30 5098 1 637 831
M  V30 5099 1 637 842
M  V30 5100 1 637 844
M  V30 5101 1 631 638
M  V30 5102 1 638 690
M  V30 5103 1 638 691
M  V30 5104 1 638 818
M  V30 5105 1 638 819
M  V30 5106 1 638 820
M  V30 5107 1 638 825
M  V30 5108 1 638 826
M  V30 5109 1 638 836
M  V30 5110 1 638 837
M  V30 5111 1 638 838
M  V30 5112 1 639 641
M  V30 5113 1 639 654
M  V30 5114 1 639 656
M  V30 5115 1 639 658
M  V30 5116 1 639 718
M  V30 5117 1 639 719
M  V30 5118 1 639 720
M  V30 5119 1 639 751
M  V30 5120 1 639 753
M  V30 5121 1 639 755
M  V30 5122 1 639 761
M  V30 5123 1 639 762
M  V30 5124 1 639 763
M  V30 5125 1 640 642
M  V30 5126 1 640 655
M  V30 5127 1 640 657
M  V30 5128 1 640 659
M  V30 5129 1 640 730
M  V30 5130 1 640 732
M  V30 5131 1 640 734
M  V30 5132 1 640 742
M  V30 5133 1 640 744
M  V30 5134 1 640 746
M  V30 5135 1 640 752
M  V30 5136 1 640 754
M  V30 5137 1 640 756
M  V30 5138 1 641 643
M  V30 5139 1 641 656
M  V30 5140 1 641 658
M  V30 5141 1 641 660
M  V30 5142 1 641 719
M  V30 5143 1 641 720
M  V30 5144 1 641 721
M  V30 5145 1 641 753
M  V30 5146 1 641 755
M  V30 5147 1 641 757
M  V30 5148 1 641 762
M  V30 5149 1 641 763
M  V30 5150 1 641 764
M  V30 5151 1 642 644
M  V30 5152 1 642 657
M  V30 5153 1 642 659
M  V30 5154 1 642 661
M  V30 5155 1 642 732
M  V30 5156 1 642 734
M  V30 5157 1 642 735
M  V30 5158 1 642 744
M  V30 5159 1 642 746
M  V30 5160 1 642 748
M  V30 5161 1 642 754
M  V30 5162 1 642 756
M  V30 5163 1 642 758
M  V30 5164 1 643 645
M  V30 5165 1 643 658
M  V30 5166 1 643 660
M  V30 5167 1 643 662
M  V30 5168 1 643 720
M  V30 5169 1 643 721
M  V30 5170 1 643 722
M  V30 5171 1 643 755
M  V30 5172 1 643 757
M  V30 5173 1 643 759
M  V30 5174 1 643 763
M  V30 5175 1 643 764
M  V30 5176 1 643 765
M  V30 5177 1 644 659
M  V30 5178 1 644 661
M  V30 5179 1 644 734
M  V30 5180 1 644 735
M  V30 5181 1 644 746
M  V30 5182 1 644 748
M  V30 5183 1 644 756
M  V30 5184 1 644 758
M  V30 5185 1 645 647
M  V30 5186 1 645 660
M  V30 5187 1 645 662
M  V30 5188 1 645 721
M  V30 5189 1 645 722
M  V30 5190 1 645 723
M  V30 5191 1 645 757
M  V30 5192 1 645 759
M  V30 5193 1 645 760
M  V30 5194 1 645 764
M  V30 5195 1 645 765
M  V30 5196 1 645 766
M  V30 5197 1 646 648
M  V30 5198 1 646 663
M  V30 5199 1 646 736
M  V30 5200 1 647 662
M  V30 5201 1 647 722
M  V30 5202 1 647 723
M  V30 5203 1 647 759
M  V30 5204 1 647 760
M  V30 5205 1 647 765
M  V30 5206 1 647 766
M  V30 5207 1 648 649
M  V30 5208 1 648 663
M  V30 5209 1 648 664
M  V30 5210 1 648 736
M  V30 5211 1 648 737
M  V30 5212 1 648 749
M  V30 5213 1 649 651
M  V30 5214 1 649 663
M  V30 5215 1 649 664
M  V30 5216 1 649 666
M  V30 5217 1 649 726
M  V30 5218 1 649 737
M  V30 5219 1 649 738
M  V30 5220 1 649 749
M  V30 5221 1 649 751
M  V30 5222 1 650 652
M  V30 5223 1 650 665
M  V30 5224 1 650 667
M  V30 5225 1 650 716
M  V30 5226 1 650 717
M  V30 5227 1 650 724
M  V30 5228 1 650 767
M  V30 5229 1 650 768
M  V30 5230 1 651 653
M  V30 5231 1 651 664
M  V30 5232 1 651 666
M  V30 5233 1 651 668
M  V30 5234 1 651 726
M  V30 5235 1 651 728
M  V30 5236 1 651 737
M  V30 5237 1 651 738
M  V30 5238 1 651 740
M  V30 5239 1 651 749
M  V30 5240 1 651 751
M  V30 5241 1 651 753
M  V30 5242 1 652 654
M  V30 5243 1 652 665
M  V30 5244 1 652 667
M  V30 5245 1 652 669
M  V30 5246 1 652 716
M  V30 5247 1 652 717
M  V30 5248 1 652 718
M  V30 5249 1 652 724
M  V30 5250 1 652 761
M  V30 5251 1 652 767
M  V30 5252 1 652 768
M  V30 5253 1 652 769
M  V30 5254 1 653 655
M  V30 5255 1 653 666
M  V30 5256 1 653 668
M  V30 5257 1 653 670
M  V30 5258 1 653 726
M  V30 5259 1 653 728
M  V30 5260 1 653 730
M  V30 5261 1 653 738
M  V30 5262 1 653 740
M  V30 5263 1 653 742
M  V30 5264 1 653 751
M  V30 5265 1 653 753
M  V30 5266 1 653 755
M  V30 5267 1 654 656
M  V30 5268 1 654 667
M  V30 5269 1 654 669
M  V30 5270 1 654 671
M  V30 5271 1 654 716
M  V30 5272 1 654 717
M  V30 5273 1 654 718
M  V30 5274 1 654 719
M  V30 5275 1 654 761
M  V30 5276 1 654 762
M  V30 5277 1 654 768
M  V30 5278 1 654 769
M  V30 5279 1 654 770
M  V30 5280 1 655 657
M  V30 5281 1 655 668
M  V30 5282 1 655 670
M  V30 5283 1 655 672
M  V30 5284 1 655 728
M  V30 5285 1 655 730
M  V30 5286 1 655 732
M  V30 5287 1 655 740
M  V30 5288 1 655 742
M  V30 5289 1 655 744
M  V30 5290 1 655 753
M  V30 5291 1 655 755
M  V30 5292 1 655 757
M  V30 5293 1 656 658
M  V30 5294 1 656 669
M  V30 5295 1 656 671
M  V30 5296 1 656 673
M  V30 5297 1 656 718
M  V30 5298 1 656 719
M  V30 5299 1 656 720
M  V30 5300 1 656 761
M  V30 5301 1 656 762
M  V30 5302 1 656 763
M  V30 5303 1 656 769
M  V30 5304 1 656 770
M  V30 5305 1 656 771
M  V30 5306 1 657 659
M  V30 5307 1 657 670
M  V30 5308 1 657 672
M  V30 5309 1 657 674
M  V30 5310 1 657 730
M  V30 5311 1 657 732
M  V30 5312 1 657 734
M  V30 5313 1 657 742
M  V30 5314 1 657 744
M  V30 5315 1 657 746
M  V30 5316 1 657 755
M  V30 5317 1 657 757
M  V30 5318 1 657 759
M  V30 5319 1 658 660
M  V30 5320 1 658 671
M  V30 5321 1 658 673
M  V30 5322 1 658 675
M  V30 5323 1 658 719
M  V30 5324 1 658 720
M  V30 5325 1 658 721
M  V30 5326 1 658 762
M  V30 5327 1 658 763
M  V30 5328 1 658 764
M  V30 5329 1 658 770
M  V30 5330 1 658 771
M  V30 5331 1 658 827
M  V30 5332 1 659 661
M  V30 5333 1 659 672
M  V30 5334 1 659 674
M  V30 5335 1 659 676
M  V30 5336 1 659 732
M  V30 5337 1 659 734
M  V30 5338 1 659 735
M  V30 5339 1 659 744
M  V30 5340 1 659 746
M  V30 5341 1 659 748
M  V30 5342 1 659 757
M  V30 5343 1 659 759
M  V30 5344 1 659 760
M  V30 5345 1 660 662
M  V30 5346 1 660 673
M  V30 5347 1 660 675
M  V30 5348 1 660 677
M  V30 5349 1 660 720
M  V30 5350 1 660 721
M  V30 5351 1 660 722
M  V30 5352 1 660 763
M  V30 5353 1 660 764
M  V30 5354 1 660 765
M  V30 5355 1 660 771
M  V30 5356 1 660 827
M  V30 5357 1 660 829
M  V30 5358 1 661 674
M  V30 5359 1 661 676
M  V30 5360 1 661 734
M  V30 5361 1 661 735
M  V30 5362 1 661 746
M  V30 5363 1 661 748
M  V30 5364 1 661 759
M  V30 5365 1 661 760
M  V30 5366 1 662 675
M  V30 5367 1 662 677
M  V30 5368 1 662 678
M  V30 5369 1 662 721
M  V30 5370 1 662 722
M  V30 5371 1 662 723
M  V30 5372 1 662 764
M  V30 5373 1 662 765
M  V30 5374 1 662 766
M  V30 5375 1 662 827
M  V30 5376 1 662 829
M  V30 5377 1 662 831
M  V30 5378 1 663 664
M  V30 5379 1 663 679
M  V30 5380 1 663 680
M  V30 5381 1 663 717
M  V30 5382 1 663 736
M  V30 5383 1 663 737
M  V30 5384 1 663 749
M  V30 5385 1 664 666
M  V30 5386 1 664 679
M  V30 5387 1 664 680
M  V30 5388 1 664 681
M  V30 5389 1 664 717
M  V30 5390 1 664 718
M  V30 5391 1 664 737
M  V30 5392 1 664 738
M  V30 5393 1 664 749
M  V30 5394 1 664 751
M  V30 5395 1 665 667
M  V30 5396 1 665 716
M  V30 5397 1 665 724
M  V30 5398 1 665 767
M  V30 5399 1 665 768
M  V30 5400 1 665 834
M  V30 5401 1 665 836
M  V30 5402 1 639 666
M  V30 5403 1 666 668
M  V30 5404 1 666 680
M  V30 5405 1 666 681
M  V30 5406 1 666 717
M  V30 5407 1 666 718
M  V30 5408 1 666 719
M  V30 5409 1 666 737
M  V30 5410 1 666 738
M  V30 5411 1 666 740
M  V30 5412 1 666 749
M  V30 5413 1 666 751
M  V30 5414 1 666 753
M  V30 5415 1 632 667
M  V30 5416 1 667 669
M  V30 5417 1 667 716
M  V30 5418 1 667 724
M  V30 5419 1 667 761
M  V30 5420 1 667 767
M  V30 5421 1 667 768
M  V30 5422 1 667 769
M  V30 5423 1 667 834
M  V30 5424 1 667 836
M  V30 5425 1 667 837
M  V30 5426 1 639 668
M  V30 5427 1 641 668
M  V30 5428 1 668 670
M  V30 5429 1 668 681
M  V30 5430 1 668 718
M  V30 5431 1 668 719
M  V30 5432 1 668 720
M  V30 5433 1 668 738
M  V30 5434 1 668 740
M  V30 5435 1 668 742
M  V30 5436 1 668 751
M  V30 5437 1 668 753
M  V30 5438 1 668 755
M  V30 5439 1 632 669
M  V30 5440 1 633 669
M  V30 5441 1 669 671
M  V30 5442 1 669 716
M  V30 5443 1 669 761
M  V30 5444 1 669 762
M  V30 5445 1 669 768
M  V30 5446 1 669 769
M  V30 5447 1 669 770
M  V30 5448 1 669 836
M  V30 5449 1 669 837
M  V30 5450 1 669 838
M  V30 5451 1 639 670
M  V30 5452 1 641 670
M  V30 5453 1 643 670
M  V30 5454 1 670 672
M  V30 5455 1 670 719
M  V30 5456 1 670 720
M  V30 5457 1 670 721
M  V30 5458 1 670 740
M  V30 5459 1 670 742
M  V30 5460 1 670 744
M  V30 5461 1 670 753
M  V30 5462 1 670 755
M  V30 5463 1 670 757
M  V30 5464 1 632 671
M  V30 5465 1 633 671
M  V30 5466 1 634 671
M  V30 5467 1 671 673
M  V30 5468 1 671 761
M  V30 5469 1 671 762
M  V30 5470 1 671 763
M  V30 5471 1 671 769
M  V30 5472 1 671 770
M  V30 5473 1 671 771
M  V30 5474 1 671 837
M  V30 5475 1 671 838
M  V30 5476 1 671 839
M  V30 5477 1 641 672
M  V30 5478 1 643 672
M  V30 5479 1 645 672
M  V30 5480 1 672 674
M  V30 5481 1 672 720
M  V30 5482 1 672 721
M  V30 5483 1 672 722
M  V30 5484 1 672 742
M  V30 5485 1 672 744
M  V30 5486 1 672 746
M  V30 5487 1 672 755
M  V30 5488 1 672 757
M  V30 5489 1 672 759
M  V30 5490 1 633 673
M  V30 5491 1 634 673
M  V30 5492 1 635 673
M  V30 5493 1 673 675
M  V30 5494 1 673 762
M  V30 5495 1 673 763
M  V30 5496 1 673 764
M  V30 5497 1 673 770
M  V30 5498 1 673 771
M  V30 5499 1 673 827
M  V30 5500 1 673 838
M  V30 5501 1 673 839
M  V30 5502 1 673 840
M  V30 5503 1 643 674
M  V30 5504 1 645 674
M  V30 5505 1 647 674
M  V30 5506 1 674 676
M  V30 5507 1 674 721
M  V30 5508 1 674 722
M  V30 5509 1 674 723
M  V30 5510 1 674 744
M  V30 5511 1 674 746
M  V30 5512 1 674 748
M  V30 5513 1 674 757
M  V30 5514 1 674 759
M  V30 5515 1 674 760
M  V30 5516 1 634 675
M  V30 5517 1 635 675
M  V30 5518 1 636 675
M  V30 5519 1 675 677
M  V30 5520 1 675 763
M  V30 5521 1 675 764
M  V30 5522 1 675 765
M  V30 5523 1 675 771
M  V30 5524 1 675 827
M  V30 5525 1 675 829
M  V30 5526 1 675 839
M  V30 5527 1 675 840
M  V30 5528 1 675 842
M  V30 5529 1 645 676
M  V30 5530 1 647 676
M  V30 5531 1 676 722
M  V30 5532 1 676 723
M  V30 5533 1 676 746
M  V30 5534 1 676 748
M  V30 5535 1 676 759
M  V30 5536 1 676 760
M  V30 5537 1 635 677
M  V30 5538 1 636 677
M  V30 5539 1 637 677
M  V30 5540 1 677 678
M  V30 5541 1 677 764
M  V30 5542 1 677 765
M  V30 5543 1 677 766
M  V30 5544 1 677 827
M  V30 5545 1 677 829
M  V30 5546 1 677 831
M  V30 5547 1 677 840
M  V30 5548 1 677 842
M  V30 5549 1 677 844
M  V30 5550 1 636 678
M  V30 5551 1 637 678
M  V30 5552 1 678 765
M  V30 5553 1 678 766
M  V30 5554 1 678 829
M  V30 5555 1 678 831
M  V30 5556 1 678 842
M  V30 5557 1 678 844
M  V30 5558 1 650 679
M  V30 5559 1 652 679
M  V30 5560 1 679 680
M  V30 5561 1 679 716
M  V30 5562 1 679 717
M  V30 5563 1 679 724
M  V30 5564 1 679 749
M  V30 5565 1 650 680
M  V30 5566 1 652 680
M  V30 5567 1 654 680
M  V30 5568 1 680 681
M  V30 5569 1 680 716
M  V30 5570 1 680 717
M  V30 5571 1 680 718
M  V30 5572 1 680 724
M  V30 5573 1 680 749
M  V30 5574 1 680 751
M  V30 5575 1 680 761
M  V30 5576 1 639 681
M  V30 5577 1 652 681
M  V30 5578 1 654 681
M  V30 5579 1 656 681
M  V30 5580 1 681 716
M  V30 5581 1 681 717
M  V30 5582 1 681 718
M  V30 5583 1 681 719
M  V30 5584 1 681 749
M  V30 5585 1 681 751
M  V30 5586 1 681 753
M  V30 5587 1 681 761
M  V30 5588 1 681 762
M  V30 5589 1 682 684
M  V30 5590 1 682 691
M  V30 5591 1 682 693
M  V30 5592 1 682 695
M  V30 5593 1 682 820
M  V30 5594 1 682 821
M  V30 5595 1 682 822
M  V30 5596 1 682 826
M  V30 5597 1 682 828
M  V30 5598 1 682 830
M  V30 5599 1 682 838
M  V30 5600 1 682 839
M  V30 5601 1 682 840
M  V30 5602 1 683 685
M  V30 5603 1 683 692
M  V30 5604 1 683 694
M  V30 5605 1 683 707
M  V30 5606 1 683 773
M  V30 5607 1 683 774
M  V30 5608 1 683 776
M  V30 5609 1 683 813
M  V30 5610 1 683 814
M  V30 5611 1 683 841
M  V30 5612 1 684 686
M  V30 5613 1 684 693
M  V30 5614 1 684 695
M  V30 5615 1 684 696
M  V30 5616 1 684 821
M  V30 5617 1 684 822
M  V30 5618 1 684 823
M  V30 5619 1 684 828
M  V30 5620 1 684 830
M  V30 5621 1 684 832
M  V30 5622 1 684 839
M  V30 5623 1 684 840
M  V30 5624 1 684 842
M  V30 5625 1 685 694
M  V30 5626 1 685 707
M  V30 5627 1 685 774
M  V30 5628 1 685 776
M  V30 5629 1 685 778
M  V30 5630 1 685 813
M  V30 5631 1 685 814
M  V30 5632 1 685 815
M  V30 5633 1 685 841
M  V30 5634 1 685 843
M  V30 5635 1 686 687
M  V30 5636 1 686 695
M  V30 5637 1 686 696
M  V30 5638 1 686 697
M  V30 5639 1 686 822
M  V30 5640 1 686 823
M  V30 5641 1 686 824
M  V30 5642 1 686 830
M  V30 5643 1 686 832
M  V30 5644 1 686 833
M  V30 5645 1 686 840
M  V30 5646 1 686 842
M  V30 5647 1 686 844
M  V30 5648 1 687 696
M  V30 5649 1 687 697
M  V30 5650 1 687 823
M  V30 5651 1 687 824
M  V30 5652 1 687 832
M  V30 5653 1 687 833
M  V30 5654 1 687 842
M  V30 5655 1 687 844
M  V30 5656 1 688 689
M  V30 5657 1 688 708
M  V30 5658 1 688 784
M  V30 5659 1 688 786
M  V30 5660 1 688 811
M  V30 5661 1 688 812
M  V30 5662 1 688 817
M  V30 5663 1 689 708
M  V30 5664 1 689 709
M  V30 5665 1 689 772
M  V30 5666 1 689 784
M  V30 5667 1 689 786
M  V30 5668 1 689 787
M  V30 5669 1 689 811
M  V30 5670 1 689 812
M  V30 5671 1 689 817
M  V30 5672 1 690 691
M  V30 5673 1 690 818
M  V30 5674 1 690 819
M  V30 5675 1 690 820
M  V30 5676 1 690 825
M  V30 5677 1 690 826
M  V30 5678 1 691 693
M  V30 5679 1 691 819
M  V30 5680 1 691 820
M  V30 5681 1 691 821
M  V30 5682 1 691 825
M  V30 5683 1 691 826
M  V30 5684 1 691 828
M  V30 5685 1 692 694
M  V30 5686 1 692 709
M  V30 5687 1 692 710
M  V30 5688 1 692 711
M  V30 5689 1 692 772
M  V30 5690 1 692 773
M  V30 5691 1 692 774
M  V30 5692 1 692 787
M  V30 5693 1 692 788
M  V30 5694 1 692 789
M  V30 5695 1 692 813
M  V30 5696 1 693 695
M  V30 5697 1 693 820
M  V30 5698 1 693 821
M  V30 5699 1 693 822
M  V30 5700 1 693 826
M  V30 5701 1 693 828
M  V30 5702 1 693 830
M  V30 5703 1 694 707
M  V30 5704 1 694 710
M  V30 5705 1 694 711
M  V30 5706 1 694 712
M  V30 5707 1 694 773
M  V30 5708 1 694 774
M  V30 5709 1 694 776
M  V30 5710 1 694 788
M  V30 5711 1 694 789
M  V30 5712 1 694 790
M  V30 5713 1 694 813
M  V30 5714 1 694 814
M  V30 5715 1 695 696
M  V30 5716 1 695 821
M  V30 5717 1 695 822
M  V30 5718 1 695 823
M  V30 5719 1 695 828
M  V30 5720 1 695 830
M  V30 5721 1 695 832
M  V30 5722 1 696 697
M  V30 5723 1 696 822
M  V30 5724 1 696 823
M  V30 5725 1 696 824
M  V30 5726 1 696 830
M  V30 5727 1 696 832
M  V30 5728 1 696 833
M  V30 5729 1 697 823
M  V30 5730 1 697 824
M  V30 5731 1 697 832
M  V30 5732 1 697 833
M  V30 5733 1 698 699
M  V30 5734 1 698 700
M  V30 5735 1 698 812
M  V30 5736 1 698 835
M  V30 5737 1 699 700
M  V30 5738 1 699 812
M  V30 5739 1 699 835
M  V30 5740 1 688 700
M  V30 5741 1 689 700
M  V30 5742 1 700 811
M  V30 5743 1 700 812
M  V30 5744 1 700 817
M  V30 5745 1 700 835
M  V30 5746 1 701 702
M  V30 5747 1 701 725
M  V30 5748 1 701 775
M  V30 5749 1 701 777
M  V30 5750 1 701 787
M  V30 5751 1 701 788
M  V30 5752 1 701 789
M  V30 5753 1 701 800
M  V30 5754 1 701 802
M  V30 5755 1 702 703
M  V30 5756 1 702 725
M  V30 5757 1 702 727
M  V30 5758 1 702 775
M  V30 5759 1 702 777
M  V30 5760 1 702 779
M  V30 5761 1 702 788
M  V30 5762 1 702 789
M  V30 5763 1 702 790
M  V30 5764 1 702 800
M  V30 5765 1 702 802
M  V30 5766 1 702 804
M  V30 5767 1 703 704
M  V30 5768 1 703 725
M  V30 5769 1 703 727
M  V30 5770 1 703 729
M  V30 5771 1 703 777
M  V30 5772 1 703 779
M  V30 5773 1 703 781
M  V30 5774 1 703 789
M  V30 5775 1 703 790
M  V30 5776 1 703 792
M  V30 5777 1 703 802
M  V30 5778 1 703 804
M  V30 5779 1 703 806
M  V30 5780 1 704 705
M  V30 5781 1 704 727
M  V30 5782 1 704 729
M  V30 5783 1 704 731
M  V30 5784 1 704 779
M  V30 5785 1 704 781
M  V30 5786 1 704 783
M  V30 5787 1 704 790
M  V30 5788 1 704 792
M  V30 5789 1 704 794
M  V30 5790 1 704 804
M  V30 5791 1 704 806
M  V30 5792 1 704 808
M  V30 5793 1 705 706
M  V30 5794 1 705 729
M  V30 5795 1 705 731
M  V30 5796 1 705 733
M  V30 5797 1 705 781
M  V30 5798 1 705 783
M  V30 5799 1 705 785
M  V30 5800 1 705 792
M  V30 5801 1 705 794
M  V30 5802 1 705 796
M  V30 5803 1 705 806
M  V30 5804 1 705 808
M  V30 5805 1 705 810
M  V30 5806 1 706 731
M  V30 5807 1 706 733
M  V30 5808 1 706 783
M  V30 5809 1 706 785
M  V30 5810 1 706 794
M  V30 5811 1 706 796
M  V30 5812 1 706 808
M  V30 5813 1 706 810
M  V30 5814 1 707 711
M  V30 5815 1 707 712
M  V30 5816 1 707 713
M  V30 5817 1 707 774
M  V30 5818 1 707 776
M  V30 5819 1 707 778
M  V30 5820 1 707 789
M  V30 5821 1 707 790
M  V30 5822 1 707 792
M  V30 5823 1 707 813
M  V30 5824 1 707 814
M  V30 5825 1 707 815
M  V30 5826 1 708 784
M  V30 5827 1 708 786
M  V30 5828 1 708 811
M  V30 5829 1 708 817
M  V30 5830 1 701 709
M  V30 5831 1 709 710
M  V30 5832 1 709 772
M  V30 5833 1 709 773
M  V30 5834 1 709 786
M  V30 5835 1 709 787
M  V30 5836 1 709 788
M  V30 5837 1 709 800
M  V30 5838 1 709 811
M  V30 5839 1 701 710
M  V30 5840 1 702 710
M  V30 5841 1 710 711
M  V30 5842 1 710 772
M  V30 5843 1 710 773
M  V30 5844 1 710 774
M  V30 5845 1 710 787
M  V30 5846 1 710 788
M  V30 5847 1 710 789
M  V30 5848 1 710 800
M  V30 5849 1 710 802
M  V30 5850 1 701 711
M  V30 5851 1 702 711
M  V30 5852 1 703 711
M  V30 5853 1 711 712
M  V30 5854 1 711 773
M  V30 5855 1 711 774
M  V30 5856 1 711 776
M  V30 5857 1 711 788
M  V30 5858 1 711 789
M  V30 5859 1 711 790
M  V30 5860 1 711 800
M  V30 5861 1 711 802
M  V30 5862 1 711 804
M  V30 5863 1 702 712
M  V30 5864 1 703 712
M  V30 5865 1 704 712
M  V30 5866 1 712 713
M  V30 5867 1 712 774
M  V30 5868 1 712 776
M  V30 5869 1 712 778
M  V30 5870 1 712 789
M  V30 5871 1 712 790
M  V30 5872 1 712 792
M  V30 5873 1 712 802
M  V30 5874 1 712 804
M  V30 5875 1 712 806
M  V30 5876 1 703 713
M  V30 5877 1 704 713
M  V30 5878 1 705 713
M  V30 5879 1 713 714
M  V30 5880 1 713 776
M  V30 5881 1 713 778
M  V30 5882 1 713 780
M  V30 5883 1 713 790
M  V30 5884 1 713 792
M  V30 5885 1 713 794
M  V30 5886 1 713 804
M  V30 5887 1 713 806
M  V30 5888 1 713 808
M  V30 5889 1 704 714
M  V30 5890 1 705 714
M  V30 5891 1 706 714
M  V30 5892 1 714 715
M  V30 5893 1 714 778
M  V30 5894 1 714 780
M  V30 5895 1 714 782
M  V30 5896 1 714 792
M  V30 5897 1 714 794
M  V30 5898 1 714 796
M  V30 5899 1 714 806
M  V30 5900 1 714 808
M  V30 5901 1 714 810
M  V30 5902 1 705 715
M  V30 5903 1 706 715
M  V30 5904 1 715 780
M  V30 5905 1 715 782
M  V30 5906 1 715 794
M  V30 5907 1 715 796
M  V30 5908 1 715 808
M  V30 5909 1 715 810
M  V30 5910 1 716 761
M  V30 5911 1 716 767
M  V30 5912 1 716 768
M  V30 5913 1 716 769
M  V30 5914 1 716 869
M  V30 5915 1 716 871
M  V30 5916 1 716 873
M  V30 5917 1 716 884
M  V30 5918 1 716 886
M  V30 5919 1 716 896
M  V30 5920 1 716 898
M  V30 5921 1 716 717
M  V30 5922 1 717 718
M  V30 5923 1 717 724
M  V30 5924 1 717 761
M  V30 5925 1 717 869
M  V30 5926 1 717 871
M  V30 5927 1 717 873
M  V30 5928 1 717 883
M  V30 5929 1 717 896
M  V30 5930 1 717 898
M  V30 5931 1 716 718
M  V30 5932 1 718 719
M  V30 5933 1 718 761
M  V30 5934 1 718 762
M  V30 5935 1 718 871
M  V30 5936 1 718 873
M  V30 5937 1 718 875
M  V30 5938 1 718 883
M  V30 5939 1 718 885
M  V30 5940 1 718 896
M  V30 5941 1 718 898
M  V30 5942 1 718 900
M  V30 5943 1 719 720
M  V30 5944 1 719 761
M  V30 5945 1 719 762
M  V30 5946 1 719 763
M  V30 5947 1 719 873
M  V30 5948 1 719 875
M  V30 5949 1 719 877
M  V30 5950 1 719 883
M  V30 5951 1 719 885
M  V30 5952 1 719 887
M  V30 5953 1 719 898
M  V30 5954 1 719 900
M  V30 5955 1 719 902
M  V30 5956 1 720 721
M  V30 5957 1 720 762
M  V30 5958 1 720 763
M  V30 5959 1 720 764
M  V30 5960 1 720 875
M  V30 5961 1 720 877
M  V30 5962 1 720 879
M  V30 5963 1 720 885
M  V30 5964 1 720 887
M  V30 5965 1 720 889
M  V30 5966 1 720 900
M  V30 5967 1 720 902
M  V30 5968 1 720 904
M  V30 5969 1 721 722
M  V30 5970 1 721 763
M  V30 5971 1 721 764
M  V30 5972 1 721 765
M  V30 5973 1 721 877
M  V30 5974 1 721 879
M  V30 5975 1 721 881
M  V30 5976 1 721 887
M  V30 5977 1 721 889
M  V30 5978 1 721 891
M  V30 5979 1 721 902
M  V30 5980 1 721 904
M  V30 5981 1 721 906
M  V30 5982 1 722 723
M  V30 5983 1 722 764
M  V30 5984 1 722 765
M  V30 5985 1 722 766
M  V30 5986 1 722 867
M  V30 5987 1 722 879
M  V30 5988 1 722 881
M  V30 5989 1 722 882
M  V30 5990 1 722 889
M  V30 5991 1 722 891
M  V30 5992 1 722 893
M  V30 5993 1 722 904
M  V30 5994 1 722 906
M  V30 5995 1 723 765
M  V30 5996 1 723 766
M  V30 5997 1 723 867
M  V30 5998 1 723 881
M  V30 5999 1 723 882
M  V30 6000 1 723 891
M  V30 6001 1 723 893
M  V30 6002 1 723 906
M  V30 6003 1 716 724
M  V30 6004 1 724 767
M  V30 6005 1 724 768
M  V30 6006 1 724 869
M  V30 6007 1 724 871
M  V30 6008 1 724 884
M  V30 6009 1 724 896
M  V30 6010 1 725 727
M  V30 6011 1 725 739
M  V30 6012 1 725 775
M  V30 6013 1 725 777
M  V30 6014 1 725 779
M  V30 6015 1 725 791
M  V30 6016 1 725 793
M  V30 6017 1 725 800
M  V30 6018 1 725 802
M  V30 6019 1 725 804
M  V30 6020 1 726 728
M  V30 6021 1 726 737
M  V30 6022 1 726 738
M  V30 6023 1 726 740
M  V30 6024 1 726 801
M  V30 6025 1 726 803
M  V30 6026 1 726 805
M  V30 6027 1 726 850
M  V30 6028 1 726 851
M  V30 6029 1 726 852
M  V30 6030 1 726 868
M  V30 6031 1 726 870
M  V30 6032 1 726 872
M  V30 6033 1 727 729
M  V30 6034 1 727 739
M  V30 6035 1 727 741
M  V30 6036 1 727 777
M  V30 6037 1 727 779
M  V30 6038 1 727 781
M  V30 6039 1 727 791
M  V30 6040 1 727 793
M  V30 6041 1 727 795
M  V30 6042 1 727 802
M  V30 6043 1 727 804
M  V30 6044 1 727 806
M  V30 6045 1 728 730
M  V30 6046 1 728 738
M  V30 6047 1 728 740
M  V30 6048 1 728 742
M  V30 6049 1 728 803
M  V30 6050 1 728 805
M  V30 6051 1 728 807
M  V30 6052 1 728 851
M  V30 6053 1 728 852
M  V30 6054 1 728 853
M  V30 6055 1 728 870
M  V30 6056 1 728 872
M  V30 6057 1 728 874
M  V30 6058 1 729 731
M  V30 6059 1 729 739
M  V30 6060 1 729 741
M  V30 6061 1 729 743
M  V30 6062 1 729 779
M  V30 6063 1 729 781
M  V30 6064 1 729 783
M  V30 6065 1 729 793
M  V30 6066 1 729 795
M  V30 6067 1 729 797
M  V30 6068 1 729 804
M  V30 6069 1 729 806
M  V30 6070 1 729 808
M  V30 6071 1 730 732
M  V30 6072 1 730 740
M  V30 6073 1 730 742
M  V30 6074 1 730 744
M  V30 6075 1 730 805
M  V30 6076 1 730 807
M  V30 6077 1 730 809
M  V30 6078 1 730 852
M  V30 6079 1 730 853
M  V30 6080 1 730 854
M  V30 6081 1 730 872
M  V30 6082 1 730 874
M  V30 6083 1 730 876
M  V30 6084 1 731 733
M  V30 6085 1 731 741
M  V30 6086 1 731 743
M  V30 6087 1 731 745
M  V30 6088 1 731 781
M  V30 6089 1 731 783
M  V30 6090 1 731 785
M  V30 6091 1 731 795
M  V30 6092 1 731 797
M  V30 6093 1 731 798
M  V30 6094 1 731 806
M  V30 6095 1 731 808
M  V30 6096 1 731 810
M  V30 6097 1 732 734
M  V30 6098 1 732 742
M  V30 6099 1 732 744
M  V30 6100 1 732 746
M  V30 6101 1 732 807
M  V30 6102 1 732 809
M  V30 6103 1 732 853
M  V30 6104 1 732 854
M  V30 6105 1 732 855
M  V30 6106 1 732 857
M  V30 6107 1 732 874
M  V30 6108 1 732 876
M  V30 6109 1 732 878
M  V30 6110 1 733 743
M  V30 6111 1 733 745
M  V30 6112 1 733 783
M  V30 6113 1 733 785
M  V30 6114 1 733 797
M  V30 6115 1 733 798
M  V30 6116 1 733 808
M  V30 6117 1 733 810
M  V30 6118 1 734 735
M  V30 6119 1 734 744
M  V30 6120 1 734 746
M  V30 6121 1 734 748
M  V30 6122 1 734 809
M  V30 6123 1 734 848
M  V30 6124 1 734 854
M  V30 6125 1 734 855
M  V30 6126 1 734 856
M  V30 6127 1 734 857
M  V30 6128 1 734 876
M  V30 6129 1 734 878
M  V30 6130 1 734 880
M  V30 6131 1 735 746
M  V30 6132 1 735 748
M  V30 6133 1 735 848
M  V30 6134 1 735 855
M  V30 6135 1 735 856
M  V30 6136 1 735 857
M  V30 6137 1 735 878
M  V30 6138 1 735 880
M  V30 6139 1 736 847
M  V30 6140 1 736 849
M  V30 6141 1 737 738
M  V30 6142 1 737 749
M  V30 6143 1 737 751
M  V30 6144 1 737 850
M  V30 6145 1 737 851
M  V30 6146 1 737 868
M  V30 6147 1 737 870
M  V30 6148 1 737 883
M  V30 6149 1 738 740
M  V30 6150 1 738 749
M  V30 6151 1 738 751
M  V30 6152 1 738 753
M  V30 6153 1 738 850
M  V30 6154 1 738 851
M  V30 6155 1 738 852
M  V30 6156 1 738 868
M  V30 6157 1 738 870
M  V30 6158 1 738 872
M  V30 6159 1 738 883
M  V30 6160 1 738 885
M  V30 6161 1 739 741
M  V30 6162 1 739 750
M  V30 6163 1 739 752
M  V30 6164 1 739 754
M  V30 6165 1 739 777
M  V30 6166 1 739 779
M  V30 6167 1 739 781
M  V30 6168 1 739 791
M  V30 6169 1 739 793
M  V30 6170 1 739 795
M  V30 6171 1 739 805
M  V30 6172 1 739 807
M  V30 6173 1 739 809
M  V30 6174 1 740 742
M  V30 6175 1 740 751
M  V30 6176 1 740 753
M  V30 6177 1 740 755
M  V30 6178 1 740 851
M  V30 6179 1 740 852
M  V30 6180 1 740 853
M  V30 6181 1 740 870
M  V30 6182 1 740 872
M  V30 6183 1 740 874
M  V30 6184 1 740 883
M  V30 6185 1 740 885
M  V30 6186 1 740 887
M  V30 6187 1 741 743
M  V30 6188 1 741 752
M  V30 6189 1 741 754
M  V30 6190 1 741 756
M  V30 6191 1 741 779
M  V30 6192 1 741 781
M  V30 6193 1 741 783
M  V30 6194 1 741 793
M  V30 6195 1 741 795
M  V30 6196 1 741 797
M  V30 6197 1 741 807
M  V30 6198 1 741 809
M  V30 6199 1 741 857
M  V30 6200 1 742 744
M  V30 6201 1 742 753
M  V30 6202 1 742 755
M  V30 6203 1 742 757
M  V30 6204 1 742 852
M  V30 6205 1 742 853
M  V30 6206 1 742 854
M  V30 6207 1 742 872
M  V30 6208 1 742 874
M  V30 6209 1 742 876
M  V30 6210 1 742 885
M  V30 6211 1 742 887
M  V30 6212 1 742 889
M  V30 6213 1 743 745
M  V30 6214 1 743 754
M  V30 6215 1 743 756
M  V30 6216 1 743 758
M  V30 6217 1 743 781
M  V30 6218 1 743 783
M  V30 6219 1 743 785
M  V30 6220 1 743 795
M  V30 6221 1 743 797
M  V30 6222 1 743 798
M  V30 6223 1 743 809
M  V30 6224 1 743 848
M  V30 6225 1 743 857
M  V30 6226 1 744 746
M  V30 6227 1 744 755
M  V30 6228 1 744 757
M  V30 6229 1 744 759
M  V30 6230 1 744 853
M  V30 6231 1 744 854
M  V30 6232 1 744 855
M  V30 6233 1 744 874
M  V30 6234 1 744 876
M  V30 6235 1 744 878
M  V30 6236 1 744 887
M  V30 6237 1 744 889
M  V30 6238 1 744 891
M  V30 6239 1 745 756
M  V30 6240 1 745 758
M  V30 6241 1 745 783
M  V30 6242 1 745 785
M  V30 6243 1 745 797
M  V30 6244 1 745 798
M  V30 6245 1 745 848
M  V30 6246 1 745 857
M  V30 6247 1 746 748
M  V30 6248 1 746 757
M  V30 6249 1 746 759
M  V30 6250 1 746 760
M  V30 6251 1 746 854
M  V30 6252 1 746 855
M  V30 6253 1 746 856
M  V30 6254 1 746 876
M  V30 6255 1 746 878
M  V30 6256 1 746 880
M  V30 6257 1 746 889
M  V30 6258 1 746 891
M  V30 6259 1 746 893
M  V30 6260 1 747 799
M  V30 6261 1 747 849
M  V30 6262 1 748 759
M  V30 6263 1 748 760
M  V30 6264 1 748 855
M  V30 6265 1 748 856
M  V30 6266 1 748 878
M  V30 6267 1 748 880
M  V30 6268 1 748 891
M  V30 6269 1 748 893
M  V30 6270 1 717 749
M  V30 6271 1 718 749
M  V30 6272 1 749 751
M  V30 6273 1 749 868
M  V30 6274 1 749 870
M  V30 6275 1 749 883
M  V30 6276 1 749 896
M  V30 6277 1 749 898
M  V30 6278 1 726 750
M  V30 6279 1 728 750
M  V30 6280 1 730 750
M  V30 6281 1 750 752
M  V30 6282 1 750 791
M  V30 6283 1 750 793
M  V30 6284 1 750 803
M  V30 6285 1 750 805
M  V30 6286 1 750 807
M  V30 6287 1 750 851
M  V30 6288 1 750 852
M  V30 6289 1 750 853
M  V30 6290 1 717 751
M  V30 6291 1 718 751
M  V30 6292 1 719 751
M  V30 6293 1 751 753
M  V30 6294 1 751 868
M  V30 6295 1 751 870
M  V30 6296 1 751 872
M  V30 6297 1 751 883
M  V30 6298 1 751 885
M  V30 6299 1 751 896
M  V30 6300 1 751 898
M  V30 6301 1 751 900
M  V30 6302 1 728 752
M  V30 6303 1 730 752
M  V30 6304 1 732 752
M  V30 6305 1 752 754
M  V30 6306 1 752 791
M  V30 6307 1 752 793
M  V30 6308 1 752 795
M  V30 6309 1 752 805
M  V30 6310 1 752 807
M  V30 6311 1 752 809
M  V30 6312 1 752 852
M  V30 6313 1 752 853
M  V30 6314 1 752 854
M  V30 6315 1 718 753
M  V30 6316 1 719 753
M  V30 6317 1 720 753
M  V30 6318 1 753 755
M  V30 6319 1 753 870
M  V30 6320 1 753 872
M  V30 6321 1 753 874
M  V30 6322 1 753 883
M  V30 6323 1 753 885
M  V30 6324 1 753 887
M  V30 6325 1 753 898
M  V30 6326 1 753 900
M  V30 6327 1 753 902
M  V30 6328 1 730 754
M  V30 6329 1 732 754
M  V30 6330 1 734 754
M  V30 6331 1 754 756
M  V30 6332 1 754 793
M  V30 6333 1 754 795
M  V30 6334 1 754 797
M  V30 6335 1 754 807
M  V30 6336 1 754 809
M  V30 6337 1 754 853
M  V30 6338 1 754 854
M  V30 6339 1 754 855
M  V30 6340 1 754 857
M  V30 6341 1 719 755
M  V30 6342 1 720 755
M  V30 6343 1 721 755
M  V30 6344 1 755 757
M  V30 6345 1 755 872
M  V30 6346 1 755 874
M  V30 6347 1 755 876
M  V30 6348 1 755 885
M  V30 6349 1 755 887
M  V30 6350 1 755 889
M  V30 6351 1 755 900
M  V30 6352 1 755 902
M  V30 6353 1 755 904
M  V30 6354 1 732 756
M  V30 6355 1 734 756
M  V30 6356 1 735 756
M  V30 6357 1 756 758
M  V30 6358 1 756 795
M  V30 6359 1 756 797
M  V30 6360 1 756 798
M  V30 6361 1 756 809
M  V30 6362 1 756 848
M  V30 6363 1 756 854
M  V30 6364 1 756 855
M  V30 6365 1 756 856
M  V30 6366 1 756 857
M  V30 6367 1 720 757
M  V30 6368 1 721 757
M  V30 6369 1 722 757
M  V30 6370 1 757 759
M  V30 6371 1 757 874
M  V30 6372 1 757 876
M  V30 6373 1 757 878
M  V30 6374 1 757 887
M  V30 6375 1 757 889
M  V30 6376 1 757 891
M  V30 6377 1 757 902
M  V30 6378 1 757 904
M  V30 6379 1 757 906
M  V30 6380 1 734 758
M  V30 6381 1 735 758
M  V30 6382 1 758 797
M  V30 6383 1 758 798
M  V30 6384 1 758 848
M  V30 6385 1 758 855
M  V30 6386 1 758 856
M  V30 6387 1 758 857
M  V30 6388 1 721 759
M  V30 6389 1 722 759
M  V30 6390 1 723 759
M  V30 6391 1 759 760
M  V30 6392 1 759 867
M  V30 6393 1 759 876
M  V30 6394 1 759 878
M  V30 6395 1 759 880
M  V30 6396 1 759 889
M  V30 6397 1 759 891
M  V30 6398 1 759 893
M  V30 6399 1 759 904
M  V30 6400 1 759 906
M  V30 6401 1 722 760
M  V30 6402 1 723 760
M  V30 6403 1 760 867
M  V30 6404 1 760 878
M  V30 6405 1 760 880
M  V30 6406 1 760 891
M  V30 6407 1 760 893
M  V30 6408 1 760 906
M  V30 6409 1 761 762
M  V30 6410 1 761 768
M  V30 6411 1 761 769
M  V30 6412 1 761 770
M  V30 6413 1 761 871
M  V30 6414 1 761 873
M  V30 6415 1 761 875
M  V30 6416 1 761 884
M  V30 6417 1 761 886
M  V30 6418 1 761 888
M  V30 6419 1 761 896
M  V30 6420 1 761 898
M  V30 6421 1 761 900
M  V30 6422 1 762 763
M  V30 6423 1 762 769
M  V30 6424 1 762 770
M  V30 6425 1 762 771
M  V30 6426 1 762 873
M  V30 6427 1 762 875
M  V30 6428 1 762 877
M  V30 6429 1 762 886
M  V30 6430 1 762 888
M  V30 6431 1 762 890
M  V30 6432 1 762 898
M  V30 6433 1 762 900
M  V30 6434 1 762 902
M  V30 6435 1 763 764
M  V30 6436 1 763 770
M  V30 6437 1 763 771
M  V30 6438 1 763 827
M  V30 6439 1 763 875
M  V30 6440 1 763 877
M  V30 6441 1 763 879
M  V30 6442 1 763 888
M  V30 6443 1 763 890
M  V30 6444 1 763 892
M  V30 6445 1 763 900
M  V30 6446 1 763 902
M  V30 6447 1 763 904
M  V30 6448 1 764 765
M  V30 6449 1 764 771
M  V30 6450 1 764 827
M  V30 6451 1 764 829
M  V30 6452 1 764 877
M  V30 6453 1 764 879
M  V30 6454 1 764 881
M  V30 6455 1 764 890
M  V30 6456 1 764 892
M  V30 6457 1 764 894
M  V30 6458 1 764 902
M  V30 6459 1 764 904
M  V30 6460 1 764 906
M  V30 6461 1 765 766
M  V30 6462 1 765 827
M  V30 6463 1 765 829
M  V30 6464 1 765 831
M  V30 6465 1 765 867
M  V30 6466 1 765 879
M  V30 6467 1 765 881
M  V30 6468 1 765 882
M  V30 6469 1 765 892
M  V30 6470 1 765 894
M  V30 6471 1 765 895
M  V30 6472 1 765 904
M  V30 6473 1 765 906
M  V30 6474 1 766 829
M  V30 6475 1 766 831
M  V30 6476 1 766 867
M  V30 6477 1 766 881
M  V30 6478 1 766 882
M  V30 6479 1 766 894
M  V30 6480 1 766 895
M  V30 6481 1 766 906
M  V30 6482 1 767 768
M  V30 6483 1 767 834
M  V30 6484 1 767 836
M  V30 6485 1 767 869
M  V30 6486 1 767 871
M  V30 6487 1 767 884
M  V30 6488 1 767 897
M  V30 6489 1 767 899
M  V30 6490 1 768 769
M  V30 6491 1 768 834
M  V30 6492 1 768 836
M  V30 6493 1 768 837
M  V30 6494 1 768 869
M  V30 6495 1 768 871
M  V30 6496 1 768 873
M  V30 6497 1 768 884
M  V30 6498 1 768 886
M  V30 6499 1 768 897
M  V30 6500 1 768 899
M  V30 6501 1 768 901
M  V30 6502 1 769 770
M  V30 6503 1 769 836
M  V30 6504 1 769 837
M  V30 6505 1 769 838
M  V30 6506 1 769 871
M  V30 6507 1 769 873
M  V30 6508 1 769 875
M  V30 6509 1 769 884
M  V30 6510 1 769 886
M  V30 6511 1 769 888
M  V30 6512 1 769 899
M  V30 6513 1 769 901
M  V30 6514 1 769 903
M  V30 6515 1 770 771
M  V30 6516 1 770 837
M  V30 6517 1 770 838
M  V30 6518 1 770 839
M  V30 6519 1 770 873
M  V30 6520 1 770 875
M  V30 6521 1 770 877
M  V30 6522 1 770 886
M  V30 6523 1 770 888
M  V30 6524 1 770 890
M  V30 6525 1 770 901
M  V30 6526 1 770 903
M  V30 6527 1 770 905
M  V30 6528 1 771 827
M  V30 6529 1 771 838
M  V30 6530 1 771 839
M  V30 6531 1 771 840
M  V30 6532 1 771 875
M  V30 6533 1 771 877
M  V30 6534 1 771 879
M  V30 6535 1 771 888
M  V30 6536 1 771 890
M  V30 6537 1 771 892
M  V30 6538 1 771 903
M  V30 6539 1 771 905
M  V30 6540 1 771 907
M  V30 6541 1 772 773
M  V30 6542 1 772 786
M  V30 6543 1 772 787
M  V30 6544 1 772 788
M  V30 6545 1 772 931
M  V30 6546 1 772 937
M  V30 6547 1 772 938
M  V30 6548 1 773 774
M  V30 6549 1 773 787
M  V30 6550 1 773 788
M  V30 6551 1 773 789
M  V30 6552 1 773 931
M  V30 6553 1 773 932
M  V30 6554 1 773 938
M  V30 6555 1 773 939
M  V30 6556 1 774 776
M  V30 6557 1 774 788
M  V30 6558 1 774 789
M  V30 6559 1 774 790
M  V30 6560 1 774 931
M  V30 6561 1 774 932
M  V30 6562 1 774 933
M  V30 6563 1 774 938
M  V30 6564 1 774 939
M  V30 6565 1 774 940
M  V30 6566 1 775 777
M  V30 6567 1 775 791
M  V30 6568 1 775 925
M  V30 6569 1 775 926
M  V30 6570 1 775 945
M  V30 6571 1 775 964
M  V30 6572 1 776 778
M  V30 6573 1 776 789
M  V30 6574 1 776 790
M  V30 6575 1 776 792
M  V30 6576 1 776 920
M  V30 6577 1 776 932
M  V30 6578 1 776 933
M  V30 6579 1 776 934
M  V30 6580 1 776 939
M  V30 6581 1 776 940
M  V30 6582 1 776 941
M  V30 6583 1 777 779
M  V30 6584 1 777 791
M  V30 6585 1 777 793
M  V30 6586 1 777 925
M  V30 6587 1 777 926
M  V30 6588 1 777 927
M  V30 6589 1 777 945
M  V30 6590 1 777 946
M  V30 6591 1 777 964
M  V30 6592 1 777 966
M  V30 6593 1 778 780
M  V30 6594 1 778 790
M  V30 6595 1 778 792
M  V30 6596 1 778 794
M  V30 6597 1 778 908
M  V30 6598 1 778 920
M  V30 6599 1 778 933
M  V30 6600 1 778 934
M  V30 6601 1 778 935
M  V30 6602 1 778 940
M  V30 6603 1 778 941
M  V30 6604 1 778 942
M  V30 6605 1 779 781
M  V30 6606 1 779 791
M  V30 6607 1 779 793
M  V30 6608 1 779 795
M  V30 6609 1 779 922
M  V30 6610 1 779 926
M  V30 6611 1 779 927
M  V30 6612 1 779 928
M  V30 6613 1 779 945
M  V30 6614 1 779 946
M  V30 6615 1 779 964
M  V30 6616 1 779 966
M  V30 6617 1 779 968
M  V30 6618 1 780 782
M  V30 6619 1 780 792
M  V30 6620 1 780 794
M  V30 6621 1 780 796
M  V30 6622 1 780 908
M  V30 6623 1 780 920
M  V30 6624 1 780 929
M  V30 6625 1 780 934
M  V30 6626 1 780 935
M  V30 6627 1 780 936
M  V30 6628 1 780 941
M  V30 6629 1 780 942
M  V30 6630 1 780 943
M  V30 6631 1 781 783
M  V30 6632 1 781 793
M  V30 6633 1 781 795
M  V30 6634 1 781 797
M  V30 6635 1 781 921
M  V30 6636 1 781 922
M  V30 6637 1 781 923
M  V30 6638 1 781 927
M  V30 6639 1 781 928
M  V30 6640 1 781 946
M  V30 6641 1 781 966
M  V30 6642 1 781 968
M  V30 6643 1 781 970
M  V30 6644 1 782 794
M  V30 6645 1 782 796
M  V30 6646 1 782 908
M  V30 6647 1 782 929
M  V30 6648 1 782 935
M  V30 6649 1 782 936
M  V30 6650 1 782 942
M  V30 6651 1 782 943
M  V30 6652 1 783 785
M  V30 6653 1 783 795
M  V30 6654 1 783 797
M  V30 6655 1 783 798
M  V30 6656 1 783 921
M  V30 6657 1 783 922
M  V30 6658 1 783 923
M  V30 6659 1 783 924
M  V30 6660 1 783 928
M  V30 6661 1 783 958
M  V30 6662 1 783 968
M  V30 6663 1 783 970
M  V30 6664 1 783 972
M  V30 6665 1 784 786
M  V30 6666 1 784 930
M  V30 6667 1 784 937
M  V30 6668 1 784 944
M  V30 6669 1 785 797
M  V30 6670 1 785 798
M  V30 6671 1 785 921
M  V30 6672 1 785 923
M  V30 6673 1 785 924
M  V30 6674 1 785 958
M  V30 6675 1 785 970
M  V30 6676 1 785 972
M  V30 6677 1 786 787
M  V30 6678 1 786 930
M  V30 6679 1 786 937
M  V30 6680 1 786 944
M  V30 6681 1 787 788
M  V30 6682 1 787 800
M  V30 6683 1 787 931
M  V30 6684 1 787 937
M  V30 6685 1 787 938
M  V30 6686 1 788 789
M  V30 6687 1 788 800
M  V30 6688 1 788 802
M  V30 6689 1 788 931
M  V30 6690 1 788 932
M  V30 6691 1 788 938
M  V30 6692 1 788 939
M  V30 6693 1 788 945
M  V30 6694 1 789 790
M  V30 6695 1 789 800
M  V30 6696 1 789 802
M  V30 6697 1 789 804
M  V30 6698 1 789 931
M  V30 6699 1 789 932
M  V30 6700 1 789 933
M  V30 6701 1 789 938
M  V30 6702 1 789 939
M  V30 6703 1 789 940
M  V30 6704 1 789 945
M  V30 6705 1 789 946
M  V30 6706 1 790 792
M  V30 6707 1 790 802
M  V30 6708 1 790 804
M  V30 6709 1 790 806
M  V30 6710 1 790 922
M  V30 6711 1 790 932
M  V30 6712 1 790 933
M  V30 6713 1 790 934
M  V30 6714 1 790 939
M  V30 6715 1 790 940
M  V30 6716 1 790 941
M  V30 6717 1 790 945
M  V30 6718 1 790 946
M  V30 6719 1 791 793
M  V30 6720 1 791 803
M  V30 6721 1 791 805
M  V30 6722 1 791 807
M  V30 6723 1 791 925
M  V30 6724 1 791 926
M  V30 6725 1 791 927
M  V30 6726 1 791 964
M  V30 6727 1 791 966
M  V30 6728 1 791 976
M  V30 6729 1 791 979
M  V30 6730 1 792 794
M  V30 6731 1 792 804
M  V30 6732 1 792 806
M  V30 6733 1 792 808
M  V30 6734 1 792 922
M  V30 6735 1 792 923
M  V30 6736 1 792 933
M  V30 6737 1 792 934
M  V30 6738 1 792 935
M  V30 6739 1 792 940
M  V30 6740 1 792 941
M  V30 6741 1 792 942
M  V30 6742 1 792 946
M  V30 6743 1 793 795
M  V30 6744 1 793 805
M  V30 6745 1 793 807
M  V30 6746 1 793 809
M  V30 6747 1 793 926
M  V30 6748 1 793 927
M  V30 6749 1 793 928
M  V30 6750 1 793 964
M  V30 6751 1 793 966
M  V30 6752 1 793 968
M  V30 6753 1 793 979
M  V30 6754 1 793 981
M  V30 6755 1 794 796
M  V30 6756 1 794 806
M  V30 6757 1 794 808
M  V30 6758 1 794 810
M  V30 6759 1 794 922
M  V30 6760 1 794 923
M  V30 6761 1 794 924
M  V30 6762 1 794 934
M  V30 6763 1 794 935
M  V30 6764 1 794 936
M  V30 6765 1 794 941
M  V30 6766 1 794 942
M  V30 6767 1 794 943
M  V30 6768 1 795 797
M  V30 6769 1 795 807
M  V30 6770 1 795 809
M  V30 6771 1 795 857
M  V30 6772 1 795 921
M  V30 6773 1 795 927
M  V30 6774 1 795 928
M  V30 6775 1 795 966
M  V30 6776 1 795 968
M  V30 6777 1 795 970
M  V30 6778 1 795 979
M  V30 6779 1 795 981
M  V30 6780 1 795 983
M  V30 6781 1 796 808
M  V30 6782 1 796 810
M  V30 6783 1 796 923
M  V30 6784 1 796 924
M  V30 6785 1 796 935
M  V30 6786 1 796 936
M  V30 6787 1 796 942
M  V30 6788 1 796 943
M  V30 6789 1 797 798
M  V30 6790 1 797 809
M  V30 6791 1 797 848
M  V30 6792 1 797 857
M  V30 6793 1 797 921
M  V30 6794 1 797 928
M  V30 6795 1 797 958
M  V30 6796 1 797 968
M  V30 6797 1 797 970
M  V30 6798 1 797 972
M  V30 6799 1 797 981
M  V30 6800 1 797 983
M  V30 6801 1 797 985
M  V30 6802 1 798 848
M  V30 6803 1 798 857
M  V30 6804 1 798 921
M  V30 6805 1 798 958
M  V30 6806 1 798 970
M  V30 6807 1 798 972
M  V30 6808 1 798 983
M  V30 6809 1 798 985
M  V30 6810 1 799 849
M  V30 6811 1 799 987
M  V30 6812 1 775 800
M  V30 6813 1 777 800
M  V30 6814 1 800 802
M  V30 6815 1 800 925
M  V30 6816 1 800 926
M  V30 6817 1 800 938
M  V30 6818 1 800 939
M  V30 6819 1 800 945
M  V30 6820 1 801 803
M  V30 6821 1 801 850
M  V30 6822 1 801 851
M  V30 6823 1 801 976
M  V30 6824 1 801 990
M  V30 6825 1 801 992
M  V30 6826 1 775 802
M  V30 6827 1 777 802
M  V30 6828 1 779 802
M  V30 6829 1 802 804
M  V30 6830 1 802 925
M  V30 6831 1 802 926
M  V30 6832 1 802 927
M  V30 6833 1 802 938
M  V30 6834 1 802 939
M  V30 6835 1 802 940
M  V30 6836 1 802 945
M  V30 6837 1 802 946
M  V30 6838 1 803 805
M  V30 6839 1 803 850
M  V30 6840 1 803 851
M  V30 6841 1 803 852
M  V30 6842 1 803 964
M  V30 6843 1 803 976
M  V30 6844 1 803 990
M  V30 6845 1 803 992
M  V30 6846 1 803 994
M  V30 6847 1 777 804
M  V30 6848 1 779 804
M  V30 6849 1 781 804
M  V30 6850 1 804 806
M  V30 6851 1 804 922
M  V30 6852 1 804 926
M  V30 6853 1 804 927
M  V30 6854 1 804 928
M  V30 6855 1 804 939
M  V30 6856 1 804 940
M  V30 6857 1 804 941
M  V30 6858 1 804 945
M  V30 6859 1 804 946
M  V30 6860 1 805 807
M  V30 6861 1 805 851
M  V30 6862 1 805 852
M  V30 6863 1 805 853
M  V30 6864 1 805 964
M  V30 6865 1 805 966
M  V30 6866 1 805 976
M  V30 6867 1 805 979
M  V30 6868 1 805 992
M  V30 6869 1 805 994
M  V30 6870 1 805 996
M  V30 6871 1 779 806
M  V30 6872 1 781 806
M  V30 6873 1 783 806
M  V30 6874 1 806 808
M  V30 6875 1 806 921
M  V30 6876 1 806 922
M  V30 6877 1 806 923
M  V30 6878 1 806 927
M  V30 6879 1 806 928
M  V30 6880 1 806 940
M  V30 6881 1 806 941
M  V30 6882 1 806 942
M  V30 6883 1 806 946
M  V30 6884 1 807 809
M  V30 6885 1 807 852
M  V30 6886 1 807 853
M  V30 6887 1 807 854
M  V30 6888 1 807 957
M  V30 6889 1 807 964
M  V30 6890 1 807 966
M  V30 6891 1 807 968
M  V30 6892 1 807 979
M  V30 6893 1 807 981
M  V30 6894 1 807 994
M  V30 6895 1 807 996
M  V30 6896 1 781 808
M  V30 6897 1 783 808
M  V30 6898 1 785 808
M  V30 6899 1 808 810
M  V30 6900 1 808 921
M  V30 6901 1 808 922
M  V30 6902 1 808 923
M  V30 6903 1 808 924
M  V30 6904 1 808 928
M  V30 6905 1 808 941
M  V30 6906 1 808 942
M  V30 6907 1 808 943
M  V30 6908 1 808 958
M  V30 6909 1 809 853
M  V30 6910 1 809 854
M  V30 6911 1 809 855
M  V30 6912 1 809 857
M  V30 6913 1 809 957
M  V30 6914 1 809 959
M  V30 6915 1 809 966
M  V30 6916 1 809 968
M  V30 6917 1 809 970
M  V30 6918 1 809 979
M  V30 6919 1 809 981
M  V30 6920 1 809 983
M  V30 6921 1 809 996
M  V30 6922 1 783 810
M  V30 6923 1 785 810
M  V30 6924 1 810 921
M  V30 6925 1 810 923
M  V30 6926 1 810 924
M  V30 6927 1 810 942
M  V30 6928 1 810 943
M  V30 6929 1 810 958
M  V30 6930 1 772 811
M  V30 6931 1 784 811
M  V30 6932 1 786 811
M  V30 6933 1 787 811
M  V30 6934 1 811 919
M  V30 6935 1 811 930
M  V30 6936 1 811 937
M  V30 6937 1 811 812
M  V30 6938 1 812 817
M  V30 6939 1 812 919
M  V30 6940 1 812 930
M  V30 6941 1 773 813
M  V30 6942 1 774 813
M  V30 6943 1 776 813
M  V30 6944 1 813 814
M  V30 6945 1 813 931
M  V30 6946 1 813 932
M  V30 6947 1 813 933
M  V30 6948 1 774 814
M  V30 6949 1 776 814
M  V30 6950 1 778 814
M  V30 6951 1 814 815
M  V30 6952 1 814 916
M  V30 6953 1 814 920
M  V30 6954 1 814 932
M  V30 6955 1 814 933
M  V30 6956 1 814 934
M  V30 6957 1 776 815
M  V30 6958 1 778 815
M  V30 6959 1 780 815
M  V30 6960 1 815 908
M  V30 6961 1 815 916
M  V30 6962 1 815 917
M  V30 6963 1 815 920
M  V30 6964 1 815 933
M  V30 6965 1 815 934
M  V30 6966 1 815 935
M  V30 6967 1 780 816
M  V30 6968 1 782 816
M  V30 6969 1 816 908
M  V30 6970 1 816 917
M  V30 6971 1 816 918
M  V30 6972 1 816 929
M  V30 6973 1 816 935
M  V30 6974 1 816 936
M  V30 6975 1 784 817
M  V30 6976 1 786 817
M  V30 6977 1 811 817
M  V30 6978 1 817 919
M  V30 6979 1 817 930
M  V30 6980 1 817 937
M  V30 6981 1 818 819
M  V30 6982 1 818 825
M  V30 6983 1 818 861
M  V30 6984 1 818 862
M  V30 6985 1 818 897
M  V30 6986 1 818 899
M  V30 6987 1 818 901
M  V30 6988 1 818 909
M  V30 6989 1 818 910
M  V30 6990 1 819 820
M  V30 6991 1 819 825
M  V30 6992 1 819 826
M  V30 6993 1 819 861
M  V30 6994 1 819 862
M  V30 6995 1 819 863
M  V30 6996 1 819 899
M  V30 6997 1 819 901
M  V30 6998 1 819 903
M  V30 6999 1 819 909
M  V30 7000 1 819 910
M  V30 7001 1 819 911
M  V30 7002 1 820 821
M  V30 7003 1 820 825
M  V30 7004 1 820 826
M  V30 7005 1 820 828
M  V30 7006 1 820 862
M  V30 7007 1 820 863
M  V30 7008 1 820 864
M  V30 7009 1 820 901
M  V30 7010 1 820 903
M  V30 7011 1 820 905
M  V30 7012 1 820 910
M  V30 7013 1 820 911
M  V30 7014 1 820 912
M  V30 7015 1 821 822
M  V30 7016 1 821 826
M  V30 7017 1 821 828
M  V30 7018 1 821 830
M  V30 7019 1 821 863
M  V30 7020 1 821 864
M  V30 7021 1 821 865
M  V30 7022 1 821 903
M  V30 7023 1 821 905
M  V30 7024 1 821 907
M  V30 7025 1 821 911
M  V30 7026 1 821 912
M  V30 7027 1 821 913
M  V30 7028 1 822 823
M  V30 7029 1 822 828
M  V30 7030 1 822 830
M  V30 7031 1 822 832
M  V30 7032 1 822 859
M  V30 7033 1 822 864
M  V30 7034 1 822 865
M  V30 7035 1 822 866
M  V30 7036 1 822 905
M  V30 7037 1 822 907
M  V30 7038 1 822 912
M  V30 7039 1 822 913
M  V30 7040 1 822 914
M  V30 7041 1 823 824
M  V30 7042 1 823 830
M  V30 7043 1 823 832
M  V30 7044 1 823 833
M  V30 7045 1 823 858
M  V30 7046 1 823 859
M  V30 7047 1 823 860
M  V30 7048 1 823 865
M  V30 7049 1 823 866
M  V30 7050 1 823 907
M  V30 7051 1 823 913
M  V30 7052 1 823 914
M  V30 7053 1 823 915
M  V30 7054 1 824 832
M  V30 7055 1 824 833
M  V30 7056 1 824 858
M  V30 7057 1 824 859
M  V30 7058 1 824 860
M  V30 7059 1 824 866
M  V30 7060 1 824 914
M  V30 7061 1 824 915
M  V30 7062 1 825 826
M  V30 7063 1 825 861
M  V30 7064 1 825 862
M  V30 7065 1 825 863
M  V30 7066 1 825 909
M  V30 7067 1 825 910
M  V30 7068 1 825 911
M  V30 7069 1 826 828
M  V30 7070 1 826 862
M  V30 7071 1 826 863
M  V30 7072 1 826 864
M  V30 7073 1 826 910
M  V30 7074 1 826 911
M  V30 7075 1 826 912
M  V30 7076 1 827 829
M  V30 7077 1 827 839
M  V30 7078 1 827 840
M  V30 7079 1 827 842
M  V30 7080 1 827 859
M  V30 7081 1 827 877
M  V30 7082 1 827 879
M  V30 7083 1 827 881
M  V30 7084 1 827 890
M  V30 7085 1 827 892
M  V30 7086 1 827 894
M  V30 7087 1 827 905
M  V30 7088 1 827 907
M  V30 7089 1 828 830
M  V30 7090 1 828 863
M  V30 7091 1 828 864
M  V30 7092 1 828 865
M  V30 7093 1 828 911
M  V30 7094 1 828 912
M  V30 7095 1 828 913
M  V30 7096 1 829 831
M  V30 7097 1 829 840
M  V30 7098 1 829 842
M  V30 7099 1 829 844
M  V30 7100 1 829 859
M  V30 7101 1 829 860
M  V30 7102 1 829 879
M  V30 7103 1 829 881
M  V30 7104 1 829 882
M  V30 7105 1 829 892
M  V30 7106 1 829 894
M  V30 7107 1 829 895
M  V30 7108 1 829 907
M  V30 7109 1 830 832
M  V30 7110 1 830 864
M  V30 7111 1 830 865
M  V30 7112 1 830 866
M  V30 7113 1 830 912
M  V30 7114 1 830 913
M  V30 7115 1 830 914
M  V30 7116 1 831 842
M  V30 7117 1 831 844
M  V30 7118 1 831 859
M  V30 7119 1 831 860
M  V30 7120 1 831 881
M  V30 7121 1 831 882
M  V30 7122 1 831 894
M  V30 7123 1 831 895
M  V30 7124 1 832 833
M  V30 7125 1 832 858
M  V30 7126 1 832 865
M  V30 7127 1 832 866
M  V30 7128 1 832 913
M  V30 7129 1 832 914
M  V30 7130 1 832 915
M  V30 7131 1 833 858
M  V30 7132 1 833 866
M  V30 7133 1 833 914
M  V30 7134 1 833 915
M  V30 7135 1 818 834
M  V30 7136 1 834 836
M  V30 7137 1 834 845
M  V30 7138 1 834 861
M  V30 7139 1 834 884
M  V30 7140 1 834 897
M  V30 7141 1 834 899
M  V30 7142 1 812 835
M  V30 7143 1 835 919
M  V30 7144 1 818 836
M  V30 7145 1 819 836
M  V30 7146 1 836 837
M  V30 7147 1 836 861
M  V30 7148 1 836 862
M  V30 7149 1 836 884
M  V30 7150 1 836 886
M  V30 7151 1 836 897
M  V30 7152 1 836 899
M  V30 7153 1 836 901
M  V30 7154 1 818 837
M  V30 7155 1 819 837
M  V30 7156 1 820 837
M  V30 7157 1 837 838
M  V30 7158 1 837 861
M  V30 7159 1 837 862
M  V30 7160 1 837 863
M  V30 7161 1 837 884
M  V30 7162 1 837 886
M  V30 7163 1 837 888
M  V30 7164 1 837 899
M  V30 7165 1 837 901
M  V30 7166 1 837 903
M  V30 7167 1 819 838
M  V30 7168 1 820 838
M  V30 7169 1 821 838
M  V30 7170 1 838 839
M  V30 7171 1 838 862
M  V30 7172 1 838 863
M  V30 7173 1 838 864
M  V30 7174 1 838 886
M  V30 7175 1 838 888
M  V30 7176 1 838 890
M  V30 7177 1 838 901
M  V30 7178 1 838 903
M  V30 7179 1 838 905
M  V30 7180 1 820 839
M  V30 7181 1 821 839
M  V30 7182 1 822 839
M  V30 7183 1 839 840
M  V30 7184 1 839 863
M  V30 7185 1 839 864
M  V30 7186 1 839 865
M  V30 7187 1 839 888
M  V30 7188 1 839 890
M  V30 7189 1 839 892
M  V30 7190 1 839 903
M  V30 7191 1 839 905
M  V30 7192 1 839 907
M  V30 7193 1 821 840
M  V30 7194 1 822 840
M  V30 7195 1 823 840
M  V30 7196 1 840 842
M  V30 7197 1 840 859
M  V30 7198 1 840 864
M  V30 7199 1 840 865
M  V30 7200 1 840 866
M  V30 7201 1 840 890
M  V30 7202 1 840 892
M  V30 7203 1 840 894
M  V30 7204 1 840 905
M  V30 7205 1 840 907
M  V30 7206 1 813 841
M  V30 7207 1 814 841
M  V30 7208 1 815 841
M  V30 7209 1 841 843
M  V30 7210 1 841 916
M  V30 7211 1 841 920
M  V30 7212 1 822 842
M  V30 7213 1 823 842
M  V30 7214 1 824 842
M  V30 7215 1 842 844
M  V30 7216 1 842 858
M  V30 7217 1 842 859
M  V30 7218 1 842 860
M  V30 7219 1 842 865
M  V30 7220 1 842 866
M  V30 7221 1 842 892
M  V30 7222 1 842 894
M  V30 7223 1 842 895
M  V30 7224 1 842 907
M  V30 7225 1 814 843
M  V30 7226 1 815 843
M  V30 7227 1 843 908
M  V30 7228 1 843 916
M  V30 7229 1 843 917
M  V30 7230 1 843 920
M  V30 7231 1 823 844
M  V30 7232 1 824 844
M  V30 7233 1 844 858
M  V30 7234 1 844 859
M  V30 7235 1 844 860
M  V30 7236 1 844 866
M  V30 7237 1 844 894
M  V30 7238 1 844 895
M  V30 7239 1 845 897
M  V30 7240 1 816 846
M  V30 7241 1 846 908
M  V30 7242 1 846 917
M  V30 7243 1 846 918
M  V30 7244 1 846 929
M  V30 7245 1 847 961
M  V30 7246 1 847 962
M  V30 7247 1 847 975
M  V30 7248 1 847 987
M  V30 7249 1 848 855
M  V30 7250 1 848 856
M  V30 7251 1 848 959
M  V30 7252 1 848 960
M  V30 7253 1 848 970
M  V30 7254 1 848 972
M  V30 7255 1 848 983
M  V30 7256 1 848 985
M  V30 7257 1 847 849
M  V30 7258 1 849 961
M  V30 7259 1 849 962
M  V30 7260 1 849 987
M  V30 7261 1 850 851
M  V30 7262 1 850 868
M  V30 7263 1 850 870
M  V30 7264 1 850 962
M  V30 7265 1 850 963
M  V30 7266 1 850 965
M  V30 7267 1 850 976
M  V30 7268 1 850 990
M  V30 7269 1 850 992
M  V30 7270 1 851 852
M  V30 7271 1 851 868
M  V30 7272 1 851 870
M  V30 7273 1 851 872
M  V30 7274 1 851 963
M  V30 7275 1 851 965
M  V30 7276 1 851 967
M  V30 7277 1 851 976
M  V30 7278 1 851 990
M  V30 7279 1 851 992
M  V30 7280 1 851 994
M  V30 7281 1 852 853
M  V30 7282 1 852 870
M  V30 7283 1 852 872
M  V30 7284 1 852 874
M  V30 7285 1 852 965
M  V30 7286 1 852 967
M  V30 7287 1 852 969
M  V30 7288 1 852 976
M  V30 7289 1 852 979
M  V30 7290 1 852 992
M  V30 7291 1 852 994
M  V30 7292 1 852 996
M  V30 7293 1 853 854
M  V30 7294 1 853 872
M  V30 7295 1 853 874
M  V30 7296 1 853 876
M  V30 7297 1 853 957
M  V30 7298 1 853 967
M  V30 7299 1 853 969
M  V30 7300 1 853 971
M  V30 7301 1 853 979
M  V30 7302 1 853 981
M  V30 7303 1 853 994
M  V30 7304 1 853 996
M  V30 7305 1 854 855
M  V30 7306 1 854 874
M  V30 7307 1 854 876
M  V30 7308 1 854 878
M  V30 7309 1 854 957
M  V30 7310 1 854 959
M  V30 7311 1 854 969
M  V30 7312 1 854 971
M  V30 7313 1 854 973
M  V30 7314 1 854 979
M  V30 7315 1 854 981
M  V30 7316 1 854 983
M  V30 7317 1 854 996
M  V30 7318 1 855 856
M  V30 7319 1 855 876
M  V30 7320 1 855 878
M  V30 7321 1 855 880
M  V30 7322 1 855 957
M  V30 7323 1 855 959
M  V30 7324 1 855 960
M  V30 7325 1 855 971
M  V30 7326 1 855 973
M  V30 7327 1 855 974
M  V30 7328 1 855 981
M  V30 7329 1 855 983
M  V30 7330 1 855 985
M  V30 7331 1 856 878
M  V30 7332 1 856 880
M  V30 7333 1 856 959
M  V30 7334 1 856 960
M  V30 7335 1 856 973
M  V30 7336 1 856 974
M  V30 7337 1 856 983
M  V30 7338 1 856 985
M  V30 7339 1 848 857
M  V30 7340 1 854 857
M  V30 7341 1 855 857
M  V30 7342 1 856 857
M  V30 7343 1 857 957
M  V30 7344 1 857 959
M  V30 7345 1 857 960
M  V30 7346 1 857 968
M  V30 7347 1 857 970
M  V30 7348 1 857 972
M  V30 7349 1 857 981
M  V30 7350 1 857 983
M  V30 7351 1 857 985
M  V30 7352 1 858 914
M  V30 7353 1 858 915
M  V30 7354 1 858 1008
M  V30 7355 1 858 1009
M  V30 7356 1 858 1022
M  V30 7357 1 858 1023
M  V30 7358 1 858 1029
M  V30 7359 1 858 1030
M  V30 7360 1 858 859
M  V30 7361 1 859 860
M  V30 7362 1 859 865
M  V30 7363 1 859 866
M  V30 7364 1 859 1007
M  V30 7365 1 859 1008
M  V30 7366 1 859 1009
M  V30 7367 1 859 1017
M  V30 7368 1 859 1019
M  V30 7369 1 859 1021
M  V30 7370 1 859 1028
M  V30 7371 1 859 1029
M  V30 7372 1 859 1030
M  V30 7373 1 858 860
M  V30 7374 1 860 866
M  V30 7375 1 860 1008
M  V30 7376 1 860 1009
M  V30 7377 1 860 1019
M  V30 7378 1 860 1021
M  V30 7379 1 860 1029
M  V30 7380 1 860 1030
M  V30 7381 1 861 862
M  V30 7382 1 861 909
M  V30 7383 1 861 910
M  V30 7384 1 861 1014
M  V30 7385 1 861 1024
M  V30 7386 1 861 1025
M  V30 7387 1 861 1033
M  V30 7388 1 862 863
M  V30 7389 1 862 909
M  V30 7390 1 862 910
M  V30 7391 1 862 911
M  V30 7392 1 862 1014
M  V30 7393 1 862 1016
M  V30 7394 1 862 1024
M  V30 7395 1 862 1025
M  V30 7396 1 862 1026
M  V30 7397 1 862 1033
M  V30 7398 1 862 1034
M  V30 7399 1 863 864
M  V30 7400 1 863 910
M  V30 7401 1 863 911
M  V30 7402 1 863 912
M  V30 7403 1 863 1006
M  V30 7404 1 863 1014
M  V30 7405 1 863 1016
M  V30 7406 1 863 1018
M  V30 7407 1 863 1025
M  V30 7408 1 863 1026
M  V30 7409 1 863 1027
M  V30 7410 1 863 1033
M  V30 7411 1 863 1034
M  V30 7412 1 864 865
M  V30 7413 1 864 911
M  V30 7414 1 864 912
M  V30 7415 1 864 913
M  V30 7416 1 864 1006
M  V30 7417 1 864 1007
M  V30 7418 1 864 1016
M  V30 7419 1 864 1018
M  V30 7420 1 864 1020
M  V30 7421 1 864 1026
M  V30 7422 1 864 1027
M  V30 7423 1 864 1028
M  V30 7424 1 864 1034
M  V30 7425 1 865 866
M  V30 7426 1 865 912
M  V30 7427 1 865 913
M  V30 7428 1 865 914
M  V30 7429 1 865 1006
M  V30 7430 1 865 1007
M  V30 7431 1 865 1008
M  V30 7432 1 865 1018
M  V30 7433 1 865 1020
M  V30 7434 1 865 1022
M  V30 7435 1 865 1027
M  V30 7436 1 865 1028
M  V30 7437 1 865 1029
M  V30 7438 1 858 866
M  V30 7439 1 866 913
M  V30 7440 1 866 914
M  V30 7441 1 866 915
M  V30 7442 1 866 1007
M  V30 7443 1 866 1008
M  V30 7444 1 866 1009
M  V30 7445 1 866 1020
M  V30 7446 1 866 1022
M  V30 7447 1 866 1023
M  V30 7448 1 866 1028
M  V30 7449 1 866 1029
M  V30 7450 1 866 1030
M  V30 7451 1 867 881
M  V30 7452 1 867 882
M  V30 7453 1 867 950
M  V30 7454 1 867 951
M  V30 7455 1 867 986
M  V30 7456 1 867 988
M  V30 7457 1 867 998
M  V30 7458 1 867 999
M  V30 7459 1 868 870
M  V30 7460 1 868 883
M  V30 7461 1 868 962
M  V30 7462 1 868 963
M  V30 7463 1 868 965
M  V30 7464 1 868 977
M  V30 7465 1 868 978
M  V30 7466 1 868 990
M  V30 7467 1 868 992
M  V30 7468 1 869 871
M  V30 7469 1 869 884
M  V30 7470 1 869 952
M  V30 7471 1 869 953
M  V30 7472 1 869 989
M  V30 7473 1 869 991
M  V30 7474 1 869 993
M  V30 7475 1 869 1010
M  V30 7476 1 869 1011
M  V30 7477 1 870 872
M  V30 7478 1 870 883
M  V30 7479 1 870 885
M  V30 7480 1 870 963
M  V30 7481 1 870 965
M  V30 7482 1 870 967
M  V30 7483 1 870 977
M  V30 7484 1 870 978
M  V30 7485 1 870 980
M  V30 7486 1 870 990
M  V30 7487 1 870 992
M  V30 7488 1 870 994
M  V30 7489 1 871 873
M  V30 7490 1 871 884
M  V30 7491 1 871 886
M  V30 7492 1 871 952
M  V30 7493 1 871 953
M  V30 7494 1 871 954
M  V30 7495 1 871 991
M  V30 7496 1 871 993
M  V30 7497 1 871 995
M  V30 7498 1 871 1010
M  V30 7499 1 871 1011
M  V30 7500 1 871 1012
M  V30 7501 1 872 874
M  V30 7502 1 872 883
M  V30 7503 1 872 885
M  V30 7504 1 872 887
M  V30 7505 1 872 965
M  V30 7506 1 872 967
M  V30 7507 1 872 969
M  V30 7508 1 872 978
M  V30 7509 1 872 980
M  V30 7510 1 872 982
M  V30 7511 1 872 992
M  V30 7512 1 872 994
M  V30 7513 1 872 996
M  V30 7514 1 873 875
M  V30 7515 1 873 884
M  V30 7516 1 873 886
M  V30 7517 1 873 888
M  V30 7518 1 873 953
M  V30 7519 1 873 954
M  V30 7520 1 873 955
M  V30 7521 1 873 993
M  V30 7522 1 873 995
M  V30 7523 1 873 997
M  V30 7524 1 873 1011
M  V30 7525 1 873 1012
M  V30 7526 1 873 1013
M  V30 7527 1 874 876
M  V30 7528 1 874 885
M  V30 7529 1 874 887
M  V30 7530 1 874 889
M  V30 7531 1 874 957
M  V30 7532 1 874 967
M  V30 7533 1 874 969
M  V30 7534 1 874 971
M  V30 7535 1 874 980
M  V30 7536 1 874 982
M  V30 7537 1 874 984
M  V30 7538 1 874 994
M  V30 7539 1 874 996
M  V30 7540 1 875 877
M  V30 7541 1 875 886
M  V30 7542 1 875 888
M  V30 7543 1 875 890
M  V30 7544 1 875 948
M  V30 7545 1 875 954
M  V30 7546 1 875 955
M  V30 7547 1 875 956
M  V30 7548 1 875 995
M  V30 7549 1 875 997
M  V30 7550 1 875 1012
M  V30 7551 1 875 1013
M  V30 7552 1 875 1015
M  V30 7553 1 876 878
M  V30 7554 1 876 887
M  V30 7555 1 876 889
M  V30 7556 1 876 891
M  V30 7557 1 876 957
M  V30 7558 1 876 959
M  V30 7559 1 876 969
M  V30 7560 1 876 971
M  V30 7561 1 876 973
M  V30 7562 1 876 982
M  V30 7563 1 876 984
M  V30 7564 1 876 986
M  V30 7565 1 876 996
M  V30 7566 1 877 879
M  V30 7567 1 877 888
M  V30 7568 1 877 890
M  V30 7569 1 877 892
M  V30 7570 1 877 947
M  V30 7571 1 877 948
M  V30 7572 1 877 949
M  V30 7573 1 877 955
M  V30 7574 1 877 956
M  V30 7575 1 877 997
M  V30 7576 1 877 1013
M  V30 7577 1 877 1015
M  V30 7578 1 877 1017
M  V30 7579 1 878 880
M  V30 7580 1 878 889
M  V30 7581 1 878 891
M  V30 7582 1 878 893
M  V30 7583 1 878 957
M  V30 7584 1 878 959
M  V30 7585 1 878 960
M  V30 7586 1 878 971
M  V30 7587 1 878 973
M  V30 7588 1 878 974
M  V30 7589 1 878 984
M  V30 7590 1 878 986
M  V30 7591 1 878 988
M  V30 7592 1 879 881
M  V30 7593 1 879 890
M  V30 7594 1 879 892
M  V30 7595 1 879 894
M  V30 7596 1 879 947
M  V30 7597 1 879 948
M  V30 7598 1 879 949
M  V30 7599 1 879 950
M  V30 7600 1 879 956
M  V30 7601 1 879 998
M  V30 7602 1 879 1015
M  V30 7603 1 879 1017
M  V30 7604 1 879 1019
M  V30 7605 1 880 891
M  V30 7606 1 880 893
M  V30 7607 1 880 959
M  V30 7608 1 880 960
M  V30 7609 1 880 973
M  V30 7610 1 880 974
M  V30 7611 1 880 986
M  V30 7612 1 880 988
M  V30 7613 1 881 882
M  V30 7614 1 881 892
M  V30 7615 1 881 894
M  V30 7616 1 881 895
M  V30 7617 1 881 947
M  V30 7618 1 881 949
M  V30 7619 1 881 950
M  V30 7620 1 881 951
M  V30 7621 1 881 998
M  V30 7622 1 881 999
M  V30 7623 1 881 1017
M  V30 7624 1 881 1019
M  V30 7625 1 881 1021
M  V30 7626 1 882 894
M  V30 7627 1 882 895
M  V30 7628 1 882 950
M  V30 7629 1 882 951
M  V30 7630 1 882 998
M  V30 7631 1 882 999
M  V30 7632 1 882 1019
M  V30 7633 1 882 1021
M  V30 7634 1 883 885
M  V30 7635 1 883 896
M  V30 7636 1 883 898
M  V30 7637 1 883 900
M  V30 7638 1 883 963
M  V30 7639 1 883 965
M  V30 7640 1 883 967
M  V30 7641 1 883 977
M  V30 7642 1 883 978
M  V30 7643 1 883 980
M  V30 7644 1 883 993
M  V30 7645 1 883 995
M  V30 7646 1 883 997
M  V30 7647 1 884 886
M  V30 7648 1 884 897
M  V30 7649 1 884 899
M  V30 7650 1 884 901
M  V30 7651 1 884 952
M  V30 7652 1 884 953
M  V30 7653 1 884 954
M  V30 7654 1 884 1010
M  V30 7655 1 884 1011
M  V30 7656 1 884 1012
M  V30 7657 1 884 1024
M  V30 7658 1 884 1025
M  V30 7659 1 885 887
M  V30 7660 1 885 898
M  V30 7661 1 885 900
M  V30 7662 1 885 902
M  V30 7663 1 885 948
M  V30 7664 1 885 965
M  V30 7665 1 885 967
M  V30 7666 1 885 969
M  V30 7667 1 885 978
M  V30 7668 1 885 980
M  V30 7669 1 885 982
M  V30 7670 1 885 995
M  V30 7671 1 885 997
M  V30 7672 1 886 888
M  V30 7673 1 886 899
M  V30 7674 1 886 901
M  V30 7675 1 886 903
M  V30 7676 1 886 953
M  V30 7677 1 886 954
M  V30 7678 1 886 955
M  V30 7679 1 886 1011
M  V30 7680 1 886 1012
M  V30 7681 1 886 1013
M  V30 7682 1 886 1024
M  V30 7683 1 886 1025
M  V30 7684 1 886 1026
M  V30 7685 1 887 889
M  V30 7686 1 887 900
M  V30 7687 1 887 902
M  V30 7688 1 887 904
M  V30 7689 1 887 948
M  V30 7690 1 887 949
M  V30 7691 1 887 967
M  V30 7692 1 887 969
M  V30 7693 1 887 971
M  V30 7694 1 887 980
M  V30 7695 1 887 982
M  V30 7696 1 887 984
M  V30 7697 1 887 997
M  V30 7698 1 888 890
M  V30 7699 1 888 901
M  V30 7700 1 888 903
M  V30 7701 1 888 905
M  V30 7702 1 888 954
M  V30 7703 1 888 955
M  V30 7704 1 888 956
M  V30 7705 1 888 1012
M  V30 7706 1 888 1013
M  V30 7707 1 888 1015
M  V30 7708 1 888 1025
M  V30 7709 1 888 1026
M  V30 7710 1 888 1027
M  V30 7711 1 889 891
M  V30 7712 1 889 902
M  V30 7713 1 889 904
M  V30 7714 1 889 906
M  V30 7715 1 889 948
M  V30 7716 1 889 949
M  V30 7717 1 889 950
M  V30 7718 1 889 969
M  V30 7719 1 889 971
M  V30 7720 1 889 973
M  V30 7721 1 889 982
M  V30 7722 1 889 984
M  V30 7723 1 889 986
M  V30 7724 1 890 892
M  V30 7725 1 890 903
M  V30 7726 1 890 905
M  V30 7727 1 890 907
M  V30 7728 1 890 947
M  V30 7729 1 890 955
M  V30 7730 1 890 956
M  V30 7731 1 890 1013
M  V30 7732 1 890 1015
M  V30 7733 1 890 1017
M  V30 7734 1 890 1026
M  V30 7735 1 890 1027
M  V30 7736 1 890 1028
M  V30 7737 1 867 891
M  V30 7738 1 891 893
M  V30 7739 1 891 904
M  V30 7740 1 891 906
M  V30 7741 1 891 949
M  V30 7742 1 891 950
M  V30 7743 1 891 951
M  V30 7744 1 891 971
M  V30 7745 1 891 973
M  V30 7746 1 891 974
M  V30 7747 1 891 984
M  V30 7748 1 891 986
M  V30 7749 1 891 988
M  V30 7750 1 859 892
M  V30 7751 1 892 894
M  V30 7752 1 892 905
M  V30 7753 1 892 907
M  V30 7754 1 892 947
M  V30 7755 1 892 956
M  V30 7756 1 892 998
M  V30 7757 1 892 1015
M  V30 7758 1 892 1017
M  V30 7759 1 892 1019
M  V30 7760 1 892 1027
M  V30 7761 1 892 1028
M  V30 7762 1 892 1029
M  V30 7763 1 867 893
M  V30 7764 1 893 906
M  V30 7765 1 893 950
M  V30 7766 1 893 951
M  V30 7767 1 893 973
M  V30 7768 1 893 974
M  V30 7769 1 893 986
M  V30 7770 1 893 988
M  V30 7771 1 859 894
M  V30 7772 1 860 894
M  V30 7773 1 894 895
M  V30 7774 1 894 907
M  V30 7775 1 894 947
M  V30 7776 1 894 998
M  V30 7777 1 894 999
M  V30 7778 1 894 1017
M  V30 7779 1 894 1019
M  V30 7780 1 894 1021
M  V30 7781 1 894 1028
M  V30 7782 1 894 1029
M  V30 7783 1 894 1030
M  V30 7784 1 859 895
M  V30 7785 1 860 895
M  V30 7786 1 895 998
M  V30 7787 1 895 999
M  V30 7788 1 895 1019
M  V30 7789 1 895 1021
M  V30 7790 1 895 1029
M  V30 7791 1 895 1030
M  V30 7792 1 869 896
M  V30 7793 1 871 896
M  V30 7794 1 873 896
M  V30 7795 1 896 898
M  V30 7796 1 896 952
M  V30 7797 1 896 953
M  V30 7798 1 896 954
M  V30 7799 1 896 977
M  V30 7800 1 896 978
M  V30 7801 1 896 991
M  V30 7802 1 896 993
M  V30 7803 1 896 995
M  V30 7804 1 861 897
M  V30 7805 1 897 899
M  V30 7806 1 897 1010
M  V30 7807 1 897 1011
M  V30 7808 1 897 1024
M  V30 7809 1 871 898
M  V30 7810 1 873 898
M  V30 7811 1 875 898
M  V30 7812 1 898 900
M  V30 7813 1 898 953
M  V30 7814 1 898 954
M  V30 7815 1 898 955
M  V30 7816 1 898 977
M  V30 7817 1 898 978
M  V30 7818 1 898 980
M  V30 7819 1 898 993
M  V30 7820 1 898 995
M  V30 7821 1 898 997
M  V30 7822 1 861 899
M  V30 7823 1 862 899
M  V30 7824 1 899 901
M  V30 7825 1 899 1010
M  V30 7826 1 899 1011
M  V30 7827 1 899 1012
M  V30 7828 1 899 1024
M  V30 7829 1 899 1025
M  V30 7830 1 899 1033
M  V30 7831 1 873 900
M  V30 7832 1 875 900
M  V30 7833 1 877 900
M  V30 7834 1 900 902
M  V30 7835 1 900 948
M  V30 7836 1 900 954
M  V30 7837 1 900 955
M  V30 7838 1 900 956
M  V30 7839 1 900 978
M  V30 7840 1 900 980
M  V30 7841 1 900 982
M  V30 7842 1 900 995
M  V30 7843 1 900 997
M  V30 7844 1 861 901
M  V30 7845 1 862 901
M  V30 7846 1 863 901
M  V30 7847 1 901 903
M  V30 7848 1 901 1011
M  V30 7849 1 901 1012
M  V30 7850 1 901 1013
M  V30 7851 1 901 1024
M  V30 7852 1 901 1025
M  V30 7853 1 901 1026
M  V30 7854 1 901 1033
M  V30 7855 1 901 1034
M  V30 7856 1 875 902
M  V30 7857 1 877 902
M  V30 7858 1 879 902
M  V30 7859 1 902 904
M  V30 7860 1 902 947
M  V30 7861 1 902 948
M  V30 7862 1 902 949
M  V30 7863 1 902 955
M  V30 7864 1 902 956
M  V30 7865 1 902 980
M  V30 7866 1 902 982
M  V30 7867 1 902 984
M  V30 7868 1 902 997
M  V30 7869 1 862 903
M  V30 7870 1 863 903
M  V30 7871 1 864 903
M  V30 7872 1 903 905
M  V30 7873 1 903 1006
M  V30 7874 1 903 1012
M  V30 7875 1 903 1013
M  V30 7876 1 903 1015
M  V30 7877 1 903 1025
M  V30 7878 1 903 1026
M  V30 7879 1 903 1027
M  V30 7880 1 903 1033
M  V30 7881 1 903 1034
M  V30 7882 1 877 904
M  V30 7883 1 879 904
M  V30 7884 1 881 904
M  V30 7885 1 904 906
M  V30 7886 1 904 947
M  V30 7887 1 904 948
M  V30 7888 1 904 949
M  V30 7889 1 904 950
M  V30 7890 1 904 956
M  V30 7891 1 904 982
M  V30 7892 1 904 984
M  V30 7893 1 904 986
M  V30 7894 1 904 998
M  V30 7895 1 863 905
M  V30 7896 1 864 905
M  V30 7897 1 865 905
M  V30 7898 1 905 907
M  V30 7899 1 905 1006
M  V30 7900 1 905 1007
M  V30 7901 1 905 1013
M  V30 7902 1 905 1015
M  V30 7903 1 905 1017
M  V30 7904 1 905 1026
M  V30 7905 1 905 1027
M  V30 7906 1 905 1028
M  V30 7907 1 905 1034
M  V30 7908 1 867 906
M  V30 7909 1 879 906
M  V30 7910 1 881 906
M  V30 7911 1 882 906
M  V30 7912 1 906 947
M  V30 7913 1 906 949
M  V30 7914 1 906 950
M  V30 7915 1 906 951
M  V30 7916 1 906 984
M  V30 7917 1 906 986
M  V30 7918 1 906 988
M  V30 7919 1 906 998
M  V30 7920 1 906 999
M  V30 7921 1 859 907
M  V30 7922 1 864 907
M  V30 7923 1 865 907
M  V30 7924 1 866 907
M  V30 7925 1 907 1006
M  V30 7926 1 907 1007
M  V30 7927 1 907 1008
M  V30 7928 1 907 1015
M  V30 7929 1 907 1017
M  V30 7930 1 907 1019
M  V30 7931 1 907 1027
M  V30 7932 1 907 1028
M  V30 7933 1 907 1029
M  V30 7934 1 908 929
M  V30 7935 1 908 934
M  V30 7936 1 908 935
M  V30 7937 1 908 936
M  V30 7938 1 908 1001
M  V30 7939 1 908 1002
M  V30 7940 1 908 1003
M  V30 7941 1 908 1031
M  V30 7942 1 908 1032
M  V30 7943 1 908 1036
M  V30 7944 1 908 1037
M  V30 7945 1 908 1039
M  V30 7946 1 909 910
M  V30 7947 1 909 1014
M  V30 7948 1 909 1033
M  V30 7949 1 910 911
M  V30 7950 1 910 1014
M  V30 7951 1 910 1016
M  V30 7952 1 910 1033
M  V30 7953 1 910 1034
M  V30 7954 1 911 912
M  V30 7955 1 911 1006
M  V30 7956 1 911 1014
M  V30 7957 1 911 1016
M  V30 7958 1 911 1018
M  V30 7959 1 911 1033
M  V30 7960 1 911 1034
M  V30 7961 1 912 913
M  V30 7962 1 912 1006
M  V30 7963 1 912 1007
M  V30 7964 1 912 1016
M  V30 7965 1 912 1018
M  V30 7966 1 912 1020
M  V30 7967 1 912 1034
M  V30 7968 1 913 914
M  V30 7969 1 913 1006
M  V30 7970 1 913 1007
M  V30 7971 1 913 1008
M  V30 7972 1 913 1018
M  V30 7973 1 913 1020
M  V30 7974 1 913 1022
M  V30 7975 1 914 915
M  V30 7976 1 914 1007
M  V30 7977 1 914 1008
M  V30 7978 1 914 1009
M  V30 7979 1 914 1020
M  V30 7980 1 914 1022
M  V30 7981 1 914 1023
M  V30 7982 1 915 1008
M  V30 7983 1 915 1009
M  V30 7984 1 915 1022
M  V30 7985 1 915 1023
M  V30 7986 1 908 916
M  V30 7987 1 916 917
M  V30 7988 1 916 920
M  V30 7989 1 916 1001
M  V30 7990 1 916 1002
M  V30 7991 1 916 1031
M  V30 7992 1 908 917
M  V30 7993 1 917 918
M  V30 7994 1 917 920
M  V30 7995 1 917 929
M  V30 7996 1 917 1001
M  V30 7997 1 917 1002
M  V30 7998 1 917 1003
M  V30 7999 1 917 1031
M  V30 8000 1 917 1032
M  V30 8001 1 908 918
M  V30 8002 1 918 929
M  V30 8003 1 918 1002
M  V30 8004 1 918 1003
M  V30 8005 1 918 1031
M  V30 8006 1 918 1032
M  V30 8007 1 919 930
M  V30 8008 1 908 920
M  V30 8009 1 920 933
M  V30 8010 1 920 934
M  V30 8011 1 920 935
M  V30 8012 1 920 1000
M  V30 8013 1 920 1001
M  V30 8014 1 920 1002
M  V30 8015 1 920 1031
M  V30 8016 1 920 1036
M  V30 8017 1 920 1037
M  V30 8018 1 921 958
M  V30 8019 1 921 968
M  V30 8020 1 921 970
M  V30 8021 1 921 972
M  V30 8022 1 921 1038
M  V30 8023 1 921 1040
M  V30 8024 1 921 1041
M  V30 8025 1 921 1049
M  V30 8026 1 921 1051
M  V30 8027 1 921 1052
M  V30 8028 1 921 1056
M  V30 8029 1 921 1057
M  V30 8030 1 921 922
M  V30 8031 1 922 923
M  V30 8032 1 922 927
M  V30 8033 1 922 928
M  V30 8034 1 922 1038
M  V30 8035 1 922 1040
M  V30 8036 1 922 1045
M  V30 8037 1 922 1046
M  V30 8038 1 922 1048
M  V30 8039 1 922 1055
M  V30 8040 1 922 1056
M  V30 8041 1 922 1057
M  V30 8042 1 921 923
M  V30 8043 1 923 924
M  V30 8044 1 923 928
M  V30 8045 1 923 958
M  V30 8046 1 923 1038
M  V30 8047 1 923 1040
M  V30 8048 1 923 1041
M  V30 8049 1 923 1046
M  V30 8050 1 923 1048
M  V30 8051 1 923 1050
M  V30 8052 1 923 1056
M  V30 8053 1 923 1057
M  V30 8054 1 921 924
M  V30 8055 1 924 958
M  V30 8056 1 924 1040
M  V30 8057 1 924 1041
M  V30 8058 1 924 1048
M  V30 8059 1 924 1050
M  V30 8060 1 924 1057
M  V30 8061 1 925 926
M  V30 8062 1 925 964
M  V30 8063 1 925 1035
M  V30 8064 1 925 1053
M  V30 8065 1 925 1054
M  V30 8066 1 926 927
M  V30 8067 1 926 964
M  V30 8068 1 926 966
M  V30 8069 1 926 1035
M  V30 8070 1 926 1047
M  V30 8071 1 926 1053
M  V30 8072 1 926 1054
M  V30 8073 1 926 1055
M  V30 8074 1 927 928
M  V30 8075 1 927 964
M  V30 8076 1 927 966
M  V30 8077 1 927 968
M  V30 8078 1 927 1035
M  V30 8079 1 927 1038
M  V30 8080 1 927 1047
M  V30 8081 1 927 1049
M  V30 8082 1 927 1054
M  V30 8083 1 927 1055
M  V30 8084 1 927 1056
M  V30 8085 1 921 928
M  V30 8086 1 928 966
M  V30 8087 1 928 968
M  V30 8088 1 928 970
M  V30 8089 1 928 1038
M  V30 8090 1 928 1040
M  V30 8091 1 928 1047
M  V30 8092 1 928 1049
M  V30 8093 1 928 1051
M  V30 8094 1 928 1055
M  V30 8095 1 928 1056
M  V30 8096 1 928 1057
M  V30 8097 1 929 935
M  V30 8098 1 929 936
M  V30 8099 1 929 1002
M  V30 8100 1 929 1003
M  V30 8101 1 929 1031
M  V30 8102 1 929 1032
M  V30 8103 1 929 1037
M  V30 8104 1 929 1039
M  V30 8105 1 930 937
M  V30 8106 1 931 932
M  V30 8107 1 931 938
M  V30 8108 1 931 939
M  V30 8109 1 931 1004
M  V30 8110 1 931 1005
M  V30 8111 1 931 1042
M  V30 8112 1 931 1043
M  V30 8113 1 931 1044
M  V30 8114 1 932 933
M  V30 8115 1 932 938
M  V30 8116 1 932 939
M  V30 8117 1 932 940
M  V30 8118 1 932 1000
M  V30 8119 1 932 1005
M  V30 8120 1 932 1043
M  V30 8121 1 932 1044
M  V30 8122 1 932 1045
M  V30 8123 1 933 934
M  V30 8124 1 933 939
M  V30 8125 1 933 940
M  V30 8126 1 933 941
M  V30 8127 1 933 1000
M  V30 8128 1 933 1001
M  V30 8129 1 933 1036
M  V30 8130 1 933 1044
M  V30 8131 1 933 1045
M  V30 8132 1 933 1046
M  V30 8133 1 934 935
M  V30 8134 1 934 940
M  V30 8135 1 934 941
M  V30 8136 1 934 942
M  V30 8137 1 934 1000
M  V30 8138 1 934 1001
M  V30 8139 1 934 1002
M  V30 8140 1 934 1036
M  V30 8141 1 934 1037
M  V30 8142 1 934 1045
M  V30 8143 1 934 1046
M  V30 8144 1 934 1048
M  V30 8145 1 935 936
M  V30 8146 1 935 941
M  V30 8147 1 935 942
M  V30 8148 1 935 943
M  V30 8149 1 935 1001
M  V30 8150 1 935 1002
M  V30 8151 1 935 1003
M  V30 8152 1 935 1036
M  V30 8153 1 935 1037
M  V30 8154 1 935 1039
M  V30 8155 1 935 1046
M  V30 8156 1 935 1048
M  V30 8157 1 935 1050
M  V30 8158 1 936 942
M  V30 8159 1 936 943
M  V30 8160 1 936 1002
M  V30 8161 1 936 1003
M  V30 8162 1 936 1037
M  V30 8163 1 936 1039
M  V30 8164 1 936 1048
M  V30 8165 1 936 1050
M  V30 8166 1 937 944
M  V30 8167 1 937 1004
M  V30 8168 1 937 1042
M  V30 8169 1 938 939
M  V30 8170 1 938 945
M  V30 8171 1 938 1004
M  V30 8172 1 938 1005
M  V30 8173 1 938 1042
M  V30 8174 1 938 1043
M  V30 8175 1 938 1044
M  V30 8176 1 938 1053
M  V30 8177 1 938 1054
M  V30 8178 1 939 940
M  V30 8179 1 939 945
M  V30 8180 1 939 946
M  V30 8181 1 939 1000
M  V30 8182 1 939 1005
M  V30 8183 1 939 1043
M  V30 8184 1 939 1044
M  V30 8185 1 939 1045
M  V30 8186 1 939 1053
M  V30 8187 1 939 1054
M  V30 8188 1 939 1055
M  V30 8189 1 922 940
M  V30 8190 1 940 941
M  V30 8191 1 940 945
M  V30 8192 1 940 946
M  V30 8193 1 940 1000
M  V30 8194 1 940 1036
M  V30 8195 1 940 1044
M  V30 8196 1 940 1045
M  V30 8197 1 940 1046
M  V30 8198 1 940 1054
M  V30 8199 1 940 1055
M  V30 8200 1 940 1056
M  V30 8201 1 922 941
M  V30 8202 1 923 941
M  V30 8203 1 941 942
M  V30 8204 1 941 946
M  V30 8205 1 941 1000
M  V30 8206 1 941 1036
M  V30 8207 1 941 1037
M  V30 8208 1 941 1045
M  V30 8209 1 941 1046
M  V30 8210 1 941 1048
M  V30 8211 1 941 1055
M  V30 8212 1 941 1056
M  V30 8213 1 941 1057
M  V30 8214 1 922 942
M  V30 8215 1 923 942
M  V30 8216 1 924 942
M  V30 8217 1 942 943
M  V30 8218 1 942 1036
M  V30 8219 1 942 1037
M  V30 8220 1 942 1039
M  V30 8221 1 942 1046
M  V30 8222 1 942 1048
M  V30 8223 1 942 1050
M  V30 8224 1 942 1056
M  V30 8225 1 942 1057
M  V30 8226 1 923 943
M  V30 8227 1 924 943
M  V30 8228 1 943 1037
M  V30 8229 1 943 1039
M  V30 8230 1 943 1048
M  V30 8231 1 943 1050
M  V30 8232 1 943 1057
M  V30 8233 1 925 945
M  V30 8234 1 926 945
M  V30 8235 1 927 945
M  V30 8236 1 945 946
M  V30 8237 1 945 1035
M  V30 8238 1 945 1043
M  V30 8239 1 945 1044
M  V30 8240 1 945 1045
M  V30 8241 1 945 1053
M  V30 8242 1 945 1054
M  V30 8243 1 945 1055
M  V30 8244 1 922 946
M  V30 8245 1 926 946
M  V30 8246 1 927 946
M  V30 8247 1 928 946
M  V30 8248 1 946 1035
M  V30 8249 1 946 1038
M  V30 8250 1 946 1044
M  V30 8251 1 946 1045
M  V30 8252 1 946 1046
M  V30 8253 1 946 1054
M  V30 8254 1 946 1055
M  V30 8255 1 946 1056
M  V30 8256 1 947 998
M  V30 8257 1 947 1015
M  V30 8258 1 947 1017
M  V30 8259 1 947 1019
M  V30 8260 1 947 1081
M  V30 8261 1 947 1083
M  V30 8262 1 947 1085
M  V30 8263 1 947 1099
M  V30 8264 1 947 1101
M  V30 8265 1 947 1103
M  V30 8266 1 947 1113
M  V30 8267 1 947 1115
M  V30 8268 1 947 1117
M  V30 8269 1 947 948
M  V30 8270 1 948 949
M  V30 8271 1 948 955
M  V30 8272 1 948 956
M  V30 8273 1 948 1079
M  V30 8274 1 948 1081
M  V30 8275 1 948 1083
M  V30 8276 1 948 1094
M  V30 8277 1 948 1096
M  V30 8278 1 948 1098
M  V30 8279 1 948 1111
M  V30 8280 1 948 1113
M  V30 8281 1 948 1115
M  V30 8282 1 947 949
M  V30 8283 1 949 950
M  V30 8284 1 949 956
M  V30 8285 1 949 998
M  V30 8286 1 949 1081
M  V30 8287 1 949 1083
M  V30 8288 1 949 1085
M  V30 8289 1 949 1096
M  V30 8290 1 949 1098
M  V30 8291 1 949 1100
M  V30 8292 1 949 1113
M  V30 8293 1 949 1115
M  V30 8294 1 949 1117
M  V30 8295 1 947 950
M  V30 8296 1 950 951
M  V30 8297 1 950 998
M  V30 8298 1 950 999
M  V30 8299 1 950 1083
M  V30 8300 1 950 1085
M  V30 8301 1 950 1087
M  V30 8302 1 950 1098
M  V30 8303 1 950 1100
M  V30 8304 1 950 1102
M  V30 8305 1 950 1115
M  V30 8306 1 950 1117
M  V30 8307 1 950 1119
M  V30 8308 1 951 998
M  V30 8309 1 951 999
M  V30 8310 1 951 1085
M  V30 8311 1 951 1087
M  V30 8312 1 951 1100
M  V30 8313 1 951 1102
M  V30 8314 1 951 1117
M  V30 8315 1 951 1119
M  V30 8316 1 952 953
M  V30 8317 1 952 1010
M  V30 8318 1 952 1011
M  V30 8319 1 952 1089
M  V30 8320 1 952 1091
M  V30 8321 1 952 1093
M  V30 8322 1 952 1104
M  V30 8323 1 952 1106
M  V30 8324 1 952 1107
M  V30 8325 1 952 1121
M  V30 8326 1 952 1123
M  V30 8327 1 952 1124
M  V30 8328 1 953 954
M  V30 8329 1 953 1010
M  V30 8330 1 953 1011
M  V30 8331 1 953 1012
M  V30 8332 1 953 1077
M  V30 8333 1 953 1091
M  V30 8334 1 953 1093
M  V30 8335 1 953 1095
M  V30 8336 1 953 1106
M  V30 8337 1 953 1107
M  V30 8338 1 953 1109
M  V30 8339 1 953 1123
M  V30 8340 1 953 1124
M  V30 8341 1 954 955
M  V30 8342 1 954 1011
M  V30 8343 1 954 1012
M  V30 8344 1 954 1013
M  V30 8345 1 954 1077
M  V30 8346 1 954 1079
M  V30 8347 1 954 1093
M  V30 8348 1 954 1095
M  V30 8349 1 954 1097
M  V30 8350 1 954 1107
M  V30 8351 1 954 1109
M  V30 8352 1 954 1111
M  V30 8353 1 954 1124
M  V30 8354 1 955 956
M  V30 8355 1 955 1012
M  V30 8356 1 955 1013
M  V30 8357 1 955 1015
M  V30 8358 1 955 1077
M  V30 8359 1 955 1079
M  V30 8360 1 955 1081
M  V30 8361 1 955 1095
M  V30 8362 1 955 1097
M  V30 8363 1 955 1099
M  V30 8364 1 955 1109
M  V30 8365 1 955 1111
M  V30 8366 1 955 1113
M  V30 8367 1 947 956
M  V30 8368 1 956 1013
M  V30 8369 1 956 1015
M  V30 8370 1 956 1017
M  V30 8371 1 956 1079
M  V30 8372 1 956 1081
M  V30 8373 1 956 1083
M  V30 8374 1 956 1097
M  V30 8375 1 956 1099
M  V30 8376 1 956 1101
M  V30 8377 1 956 1111
M  V30 8378 1 956 1113
M  V30 8379 1 956 1115
M  V30 8380 1 957 959
M  V30 8381 1 957 969
M  V30 8382 1 957 971
M  V30 8383 1 957 973
M  V30 8384 1 957 1060
M  V30 8385 1 957 1061
M  V30 8386 1 957 1062
M  V30 8387 1 957 1065
M  V30 8388 1 957 1066
M  V30 8389 1 957 1078
M  V30 8390 1 957 1080
M  V30 8391 1 957 1082
M  V30 8392 1 958 970
M  V30 8393 1 958 972
M  V30 8394 1 958 1040
M  V30 8395 1 958 1041
M  V30 8396 1 958 1051
M  V30 8397 1 958 1052
M  V30 8398 1 958 1057
M  V30 8399 1 959 960
M  V30 8400 1 959 971
M  V30 8401 1 959 973
M  V30 8402 1 959 974
M  V30 8403 1 959 1061
M  V30 8404 1 959 1062
M  V30 8405 1 959 1063
M  V30 8406 1 959 1065
M  V30 8407 1 959 1066
M  V30 8408 1 959 1067
M  V30 8409 1 959 1080
M  V30 8410 1 959 1082
M  V30 8411 1 959 1084
M  V30 8412 1 960 973
M  V30 8413 1 960 974
M  V30 8414 1 960 1062
M  V30 8415 1 960 1063
M  V30 8416 1 960 1066
M  V30 8417 1 960 1067
M  V30 8418 1 960 1082
M  V30 8419 1 960 1084
M  V30 8420 1 961 962
M  V30 8421 1 961 975
M  V30 8422 1 961 1086
M  V30 8423 1 961 1088
M  V30 8424 1 962 963
M  V30 8425 1 962 975
M  V30 8426 1 962 977
M  V30 8427 1 962 1086
M  V30 8428 1 962 1088
M  V30 8429 1 962 1090
M  V30 8430 1 963 965
M  V30 8431 1 963 977
M  V30 8432 1 963 978
M  V30 8433 1 963 1059
M  V30 8434 1 963 1064
M  V30 8435 1 963 1088
M  V30 8436 1 963 1090
M  V30 8437 1 963 1092
M  V30 8438 1 964 966
M  V30 8439 1 964 976
M  V30 8440 1 964 979
M  V30 8441 1 964 1035
M  V30 8442 1 964 1047
M  V30 8443 1 965 967
M  V30 8444 1 965 977
M  V30 8445 1 965 978
M  V30 8446 1 965 980
M  V30 8447 1 965 1058
M  V30 8448 1 965 1059
M  V30 8449 1 965 1064
M  V30 8450 1 965 1090
M  V30 8451 1 965 1092
M  V30 8452 1 965 1094
M  V30 8453 1 966 968
M  V30 8454 1 966 979
M  V30 8455 1 966 981
M  V30 8456 1 966 1035
M  V30 8457 1 966 1038
M  V30 8458 1 966 1047
M  V30 8459 1 966 1049
M  V30 8460 1 966 1065
M  V30 8461 1 967 969
M  V30 8462 1 967 978
M  V30 8463 1 967 980
M  V30 8464 1 967 982
M  V30 8465 1 967 1058
M  V30 8466 1 967 1059
M  V30 8467 1 967 1060
M  V30 8468 1 967 1064
M  V30 8469 1 967 1078
M  V30 8470 1 967 1092
M  V30 8471 1 967 1094
M  V30 8472 1 967 1096
M  V30 8473 1 968 970
M  V30 8474 1 968 979
M  V30 8475 1 968 981
M  V30 8476 1 968 983
M  V30 8477 1 968 1038
M  V30 8478 1 968 1040
M  V30 8479 1 968 1047
M  V30 8480 1 968 1049
M  V30 8481 1 968 1051
M  V30 8482 1 968 1065
M  V30 8483 1 968 1066
M  V30 8484 1 969 971
M  V30 8485 1 969 980
M  V30 8486 1 969 982
M  V30 8487 1 969 984
M  V30 8488 1 969 1058
M  V30 8489 1 969 1060
M  V30 8490 1 969 1061
M  V30 8491 1 969 1078
M  V30 8492 1 969 1080
M  V30 8493 1 969 1094
M  V30 8494 1 969 1096
M  V30 8495 1 969 1098
M  V30 8496 1 970 972
M  V30 8497 1 970 981
M  V30 8498 1 970 983
M  V30 8499 1 970 985
M  V30 8500 1 970 1038
M  V30 8501 1 970 1040
M  V30 8502 1 970 1041
M  V30 8503 1 970 1049
M  V30 8504 1 970 1051
M  V30 8505 1 970 1052
M  V30 8506 1 970 1065
M  V30 8507 1 970 1066
M  V30 8508 1 970 1067
M  V30 8509 1 971 973
M  V30 8510 1 971 982
M  V30 8511 1 971 984
M  V30 8512 1 971 986
M  V30 8513 1 971 1060
M  V30 8514 1 971 1061
M  V30 8515 1 971 1062
M  V30 8516 1 971 1078
M  V30 8517 1 971 1080
M  V30 8518 1 971 1082
M  V30 8519 1 971 1096
M  V30 8520 1 971 1098
M  V30 8521 1 971 1100
M  V30 8522 1 972 983
M  V30 8523 1 972 985
M  V30 8524 1 972 1040
M  V30 8525 1 972 1041
M  V30 8526 1 972 1051
M  V30 8527 1 972 1052
M  V30 8528 1 972 1066
M  V30 8529 1 972 1067
M  V30 8530 1 973 974
M  V30 8531 1 973 984
M  V30 8532 1 973 986
M  V30 8533 1 973 988
M  V30 8534 1 973 1061
M  V30 8535 1 973 1062
M  V30 8536 1 973 1063
M  V30 8537 1 973 1080
M  V30 8538 1 973 1082
M  V30 8539 1 973 1084
M  V30 8540 1 973 1098
M  V30 8541 1 973 1100
M  V30 8542 1 973 1102
M  V30 8543 1 974 986
M  V30 8544 1 974 988
M  V30 8545 1 974 1062
M  V30 8546 1 974 1063
M  V30 8547 1 974 1082
M  V30 8548 1 974 1084
M  V30 8549 1 974 1100
M  V30 8550 1 974 1102
M  V30 8551 1 975 989
M  V30 8552 1 975 991
M  V30 8553 1 975 1086
M  V30 8554 1 975 1088
M  V30 8555 1 975 1104
M  V30 8556 1 975 1106
M  V30 8557 1 976 990
M  V30 8558 1 976 992
M  V30 8559 1 976 994
M  V30 8560 1 976 1059
M  V30 8561 1 977 978
M  V30 8562 1 977 991
M  V30 8563 1 977 993
M  V30 8564 1 977 995
M  V30 8565 1 977 1064
M  V30 8566 1 977 1088
M  V30 8567 1 977 1090
M  V30 8568 1 977 1092
M  V30 8569 1 977 1106
M  V30 8570 1 977 1107
M  V30 8571 1 977 1109
M  V30 8572 1 978 980
M  V30 8573 1 978 993
M  V30 8574 1 978 995
M  V30 8575 1 978 997
M  V30 8576 1 978 1058
M  V30 8577 1 978 1064
M  V30 8578 1 978 1090
M  V30 8579 1 978 1092
M  V30 8580 1 978 1094
M  V30 8581 1 978 1107
M  V30 8582 1 978 1109
M  V30 8583 1 978 1111
M  V30 8584 1 957 979
M  V30 8585 1 979 981
M  V30 8586 1 979 994
M  V30 8587 1 979 996
M  V30 8588 1 979 1047
M  V30 8589 1 979 1049
M  V30 8590 1 979 1060
M  V30 8591 1 979 1061
M  V30 8592 1 979 1065
M  V30 8593 1 948 980
M  V30 8594 1 980 982
M  V30 8595 1 980 995
M  V30 8596 1 980 997
M  V30 8597 1 980 1058
M  V30 8598 1 980 1064
M  V30 8599 1 980 1078
M  V30 8600 1 980 1092
M  V30 8601 1 980 1094
M  V30 8602 1 980 1096
M  V30 8603 1 980 1109
M  V30 8604 1 980 1111
M  V30 8605 1 980 1113
M  V30 8606 1 957 981
M  V30 8607 1 959 981
M  V30 8608 1 981 983
M  V30 8609 1 981 996
M  V30 8610 1 981 1047
M  V30 8611 1 981 1049
M  V30 8612 1 981 1051
M  V30 8613 1 981 1060
M  V30 8614 1 981 1061
M  V30 8615 1 981 1062
M  V30 8616 1 981 1065
M  V30 8617 1 981 1066
M  V30 8618 1 948 982
M  V30 8619 1 949 982
M  V30 8620 1 982 984
M  V30 8621 1 982 997
M  V30 8622 1 982 1058
M  V30 8623 1 982 1078
M  V30 8624 1 982 1080
M  V30 8625 1 982 1094
M  V30 8626 1 982 1096
M  V30 8627 1 982 1098
M  V30 8628 1 982 1111
M  V30 8629 1 982 1113
M  V30 8630 1 982 1115
M  V30 8631 1 957 983
M  V30 8632 1 959 983
M  V30 8633 1 960 983
M  V30 8634 1 983 985
M  V30 8635 1 983 1049
M  V30 8636 1 983 1051
M  V30 8637 1 983 1052
M  V30 8638 1 983 1061
M  V30 8639 1 983 1062
M  V30 8640 1 983 1063
M  V30 8641 1 983 1065
M  V30 8642 1 983 1066
M  V30 8643 1 983 1067
M  V30 8644 1 948 984
M  V30 8645 1 949 984
M  V30 8646 1 950 984
M  V30 8647 1 984 986
M  V30 8648 1 984 1078
M  V30 8649 1 984 1080
M  V30 8650 1 984 1082
M  V30 8651 1 984 1096
M  V30 8652 1 984 1098
M  V30 8653 1 984 1100
M  V30 8654 1 984 1113
M  V30 8655 1 984 1115
M  V30 8656 1 984 1117
M  V30 8657 1 959 985
M  V30 8658 1 960 985
M  V30 8659 1 985 1051
M  V30 8660 1 985 1052
M  V30 8661 1 985 1062
M  V30 8662 1 985 1063
M  V30 8663 1 985 1066
M  V30 8664 1 985 1067
M  V30 8665 1 949 986
M  V30 8666 1 950 986
M  V30 8667 1 951 986
M  V30 8668 1 986 988
M  V30 8669 1 986 1080
M  V30 8670 1 986 1082
M  V30 8671 1 986 1084
M  V30 8672 1 986 1098
M  V30 8673 1 986 1100
M  V30 8674 1 986 1102
M  V30 8675 1 986 1115
M  V30 8676 1 986 1117
M  V30 8677 1 986 1119
M  V30 8678 1 961 987
M  V30 8679 1 962 987
M  V30 8680 1 950 988
M  V30 8681 1 951 988
M  V30 8682 1 988 1082
M  V30 8683 1 988 1084
M  V30 8684 1 988 1100
M  V30 8685 1 988 1102
M  V30 8686 1 988 1117
M  V30 8687 1 988 1119
M  V30 8688 1 952 989
M  V30 8689 1 989 991
M  V30 8690 1 989 1086
M  V30 8691 1 989 1088
M  V30 8692 1 989 1104
M  V30 8693 1 989 1106
M  V30 8694 1 989 1121
M  V30 8695 1 989 1123
M  V30 8696 1 962 990
M  V30 8697 1 963 990
M  V30 8698 1 965 990
M  V30 8699 1 990 992
M  V30 8700 1 990 1059
M  V30 8701 1 990 1064
M  V30 8702 1 952 991
M  V30 8703 1 953 991
M  V30 8704 1 991 993
M  V30 8705 1 991 1086
M  V30 8706 1 991 1088
M  V30 8707 1 991 1090
M  V30 8708 1 991 1104
M  V30 8709 1 991 1106
M  V30 8710 1 991 1107
M  V30 8711 1 991 1121
M  V30 8712 1 991 1123
M  V30 8713 1 991 1124
M  V30 8714 1 963 992
M  V30 8715 1 965 992
M  V30 8716 1 967 992
M  V30 8717 1 992 994
M  V30 8718 1 992 1058
M  V30 8719 1 992 1059
M  V30 8720 1 992 1064
M  V30 8721 1 952 993
M  V30 8722 1 953 993
M  V30 8723 1 954 993
M  V30 8724 1 993 995
M  V30 8725 1 993 1077
M  V30 8726 1 993 1088
M  V30 8727 1 993 1090
M  V30 8728 1 993 1092
M  V30 8729 1 993 1106
M  V30 8730 1 993 1107
M  V30 8731 1 993 1109
M  V30 8732 1 993 1123
M  V30 8733 1 993 1124
M  V30 8734 1 965 994
M  V30 8735 1 967 994
M  V30 8736 1 969 994
M  V30 8737 1 994 996
M  V30 8738 1 994 1058
M  V30 8739 1 994 1059
M  V30 8740 1 994 1060
M  V30 8741 1 994 1064
M  V30 8742 1 994 1078
M  V30 8743 1 953 995
M  V30 8744 1 954 995
M  V30 8745 1 955 995
M  V30 8746 1 995 997
M  V30 8747 1 995 1077
M  V30 8748 1 995 1079
M  V30 8749 1 995 1090
M  V30 8750 1 995 1092
M  V30 8751 1 995 1094
M  V30 8752 1 995 1107
M  V30 8753 1 995 1109
M  V30 8754 1 995 1111
M  V30 8755 1 995 1124
M  V30 8756 1 957 996
M  V30 8757 1 967 996
M  V30 8758 1 969 996
M  V30 8759 1 971 996
M  V30 8760 1 996 1058
M  V30 8761 1 996 1060
M  V30 8762 1 996 1061
M  V30 8763 1 996 1065
M  V30 8764 1 996 1078
M  V30 8765 1 996 1080
M  V30 8766 1 948 997
M  V30 8767 1 954 997
M  V30 8768 1 955 997
M  V30 8769 1 956 997
M  V30 8770 1 997 1077
M  V30 8771 1 997 1079
M  V30 8772 1 997 1081
M  V30 8773 1 997 1092
M  V30 8774 1 997 1094
M  V30 8775 1 997 1096
M  V30 8776 1 997 1109
M  V30 8777 1 997 1111
M  V30 8778 1 997 1113
M  V30 8779 1 998 999
M  V30 8780 1 998 1017
M  V30 8781 1 998 1019
M  V30 8782 1 998 1021
M  V30 8783 1 998 1083
M  V30 8784 1 998 1085
M  V30 8785 1 998 1087
M  V30 8786 1 998 1101
M  V30 8787 1 998 1103
M  V30 8788 1 998 1105
M  V30 8789 1 998 1115
M  V30 8790 1 998 1117
M  V30 8791 1 998 1119
M  V30 8792 1 999 1019
M  V30 8793 1 999 1021
M  V30 8794 1 999 1085
M  V30 8795 1 999 1087
M  V30 8796 1 999 1103
M  V30 8797 1 999 1105
M  V30 8798 1 999 1117
M  V30 8799 1 999 1119
M  V30 8800 1 1000 1036
M  V30 8801 1 1000 1044
M  V30 8802 1 1000 1045
M  V30 8803 1 1000 1046
M  V30 8804 1 1000 1133
M  V30 8805 1 1000 1134
M  V30 8806 1 1000 1139
M  V30 8807 1 1000 1140
M  V30 8808 1 1000 1141
M  V30 8809 1 1000 1001
M  V30 8810 1 1001 1002
M  V30 8811 1 1001 1036
M  V30 8812 1 1001 1037
M  V30 8813 1 1001 1130
M  V30 8814 1 1001 1131
M  V30 8815 1 1001 1133
M  V30 8816 1 1001 1134
M  V30 8817 1 1001 1135
M  V30 8818 1 1001 1145
M  V30 8819 1 1002 1003
M  V30 8820 1 1002 1036
M  V30 8821 1 1002 1037
M  V30 8822 1 1002 1039
M  V30 8823 1 1002 1130
M  V30 8824 1 1002 1131
M  V30 8825 1 1002 1132
M  V30 8826 1 1002 1134
M  V30 8827 1 1002 1135
M  V30 8828 1 1002 1136
M  V30 8829 1 1002 1145
M  V30 8830 1 1002 1146
M  V30 8831 1 1003 1037
M  V30 8832 1 1003 1039
M  V30 8833 1 1003 1131
M  V30 8834 1 1003 1132
M  V30 8835 1 1003 1135
M  V30 8836 1 1003 1136
M  V30 8837 1 1003 1145
M  V30 8838 1 1003 1146
M  V30 8839 1 1004 1005
M  V30 8840 1 1004 1042
M  V30 8841 1 1004 1043
M  V30 8842 1 1004 1137
M  V30 8843 1 1004 1138
M  V30 8844 1 1005 1042
M  V30 8845 1 1005 1043
M  V30 8846 1 1005 1044
M  V30 8847 1 1005 1137
M  V30 8848 1 1005 1138
M  V30 8849 1 1005 1139
M  V30 8850 1 1006 1007
M  V30 8851 1 1006 1016
M  V30 8852 1 1006 1018
M  V30 8853 1 1006 1020
M  V30 8854 1 1006 1071
M  V30 8855 1 1006 1072
M  V30 8856 1 1006 1073
M  V30 8857 1 1006 1114
M  V30 8858 1 1006 1116
M  V30 8859 1 1006 1118
M  V30 8860 1 1006 1125
M  V30 8861 1 1006 1126
M  V30 8862 1 1006 1127
M  V30 8863 1 1007 1008
M  V30 8864 1 1007 1018
M  V30 8865 1 1007 1020
M  V30 8866 1 1007 1022
M  V30 8867 1 1007 1072
M  V30 8868 1 1007 1073
M  V30 8869 1 1007 1074
M  V30 8870 1 1007 1116
M  V30 8871 1 1007 1118
M  V30 8872 1 1007 1120
M  V30 8873 1 1007 1126
M  V30 8874 1 1007 1127
M  V30 8875 1 1007 1128
M  V30 8876 1 1008 1009
M  V30 8877 1 1008 1020
M  V30 8878 1 1008 1022
M  V30 8879 1 1008 1023
M  V30 8880 1 1008 1073
M  V30 8881 1 1008 1074
M  V30 8882 1 1008 1075
M  V30 8883 1 1008 1118
M  V30 8884 1 1008 1120
M  V30 8885 1 1008 1122
M  V30 8886 1 1008 1127
M  V30 8887 1 1008 1128
M  V30 8888 1 1008 1129
M  V30 8889 1 1009 1022
M  V30 8890 1 1009 1023
M  V30 8891 1 1009 1074
M  V30 8892 1 1009 1075
M  V30 8893 1 1009 1120
M  V30 8894 1 1009 1122
M  V30 8895 1 1009 1128
M  V30 8896 1 1009 1129
M  V30 8897 1 1010 1011
M  V30 8898 1 1010 1024
M  V30 8899 1 1010 1089
M  V30 8900 1 1010 1091
M  V30 8901 1 1010 1093
M  V30 8902 1 1010 1108
M  V30 8903 1 1010 1110
M  V30 8904 1 1010 1121
M  V30 8905 1 1010 1123
M  V30 8906 1 1010 1124
M  V30 8907 1 1011 1012
M  V30 8908 1 1011 1024
M  V30 8909 1 1011 1025
M  V30 8910 1 1011 1077
M  V30 8911 1 1011 1091
M  V30 8912 1 1011 1093
M  V30 8913 1 1011 1095
M  V30 8914 1 1011 1108
M  V30 8915 1 1011 1110
M  V30 8916 1 1011 1112
M  V30 8917 1 1011 1123
M  V30 8918 1 1011 1124
M  V30 8919 1 1012 1013
M  V30 8920 1 1012 1024
M  V30 8921 1 1012 1025
M  V30 8922 1 1012 1026
M  V30 8923 1 1012 1077
M  V30 8924 1 1012 1079
M  V30 8925 1 1012 1093
M  V30 8926 1 1012 1095
M  V30 8927 1 1012 1097
M  V30 8928 1 1012 1110
M  V30 8929 1 1012 1112
M  V30 8930 1 1012 1114
M  V30 8931 1 1012 1124
M  V30 8932 1 1013 1015
M  V30 8933 1 1013 1025
M  V30 8934 1 1013 1026
M  V30 8935 1 1013 1027
M  V30 8936 1 1013 1077
M  V30 8937 1 1013 1079
M  V30 8938 1 1013 1081
M  V30 8939 1 1013 1095
M  V30 8940 1 1013 1097
M  V30 8941 1 1013 1099
M  V30 8942 1 1013 1112
M  V30 8943 1 1013 1114
M  V30 8944 1 1013 1116
M  V30 8945 1 1014 1016
M  V30 8946 1 1014 1068
M  V30 8947 1 1014 1069
M  V30 8948 1 1014 1070
M  V30 8949 1 1014 1071
M  V30 8950 1 1014 1076
M  V30 8951 1 1014 1125
M  V30 8952 1 1015 1017
M  V30 8953 1 1015 1026
M  V30 8954 1 1015 1027
M  V30 8955 1 1015 1028
M  V30 8956 1 1015 1079
M  V30 8957 1 1015 1081
M  V30 8958 1 1015 1083
M  V30 8959 1 1015 1097
M  V30 8960 1 1015 1099
M  V30 8961 1 1015 1101
M  V30 8962 1 1015 1114
M  V30 8963 1 1015 1116
M  V30 8964 1 1015 1118
M  V30 8965 1 1016 1018
M  V30 8966 1 1016 1068
M  V30 8967 1 1016 1070
M  V30 8968 1 1016 1071
M  V30 8969 1 1016 1072
M  V30 8970 1 1016 1125
M  V30 8971 1 1016 1126
M  V30 8972 1 1017 1019
M  V30 8973 1 1017 1027
M  V30 8974 1 1017 1028
M  V30 8975 1 1017 1029
M  V30 8976 1 1017 1081
M  V30 8977 1 1017 1083
M  V30 8978 1 1017 1085
M  V30 8979 1 1017 1099
M  V30 8980 1 1017 1101
M  V30 8981 1 1017 1103
M  V30 8982 1 1017 1116
M  V30 8983 1 1017 1118
M  V30 8984 1 1017 1120
M  V30 8985 1 1018 1020
M  V30 8986 1 1018 1071
M  V30 8987 1 1018 1072
M  V30 8988 1 1018 1073
M  V30 8989 1 1018 1125
M  V30 8990 1 1018 1126
M  V30 8991 1 1018 1127
M  V30 8992 1 1019 1021
M  V30 8993 1 1019 1028
M  V30 8994 1 1019 1029
M  V30 8995 1 1019 1030
M  V30 8996 1 1019 1083
M  V30 8997 1 1019 1085
M  V30 8998 1 1019 1087
M  V30 8999 1 1019 1101
M  V30 9000 1 1019 1103
M  V30 9001 1 1019 1105
M  V30 9002 1 1019 1118
M  V30 9003 1 1019 1120
M  V30 9004 1 1019 1122
M  V30 9005 1 1020 1022
M  V30 9006 1 1020 1072
M  V30 9007 1 1020 1073
M  V30 9008 1 1020 1074
M  V30 9009 1 1020 1126
M  V30 9010 1 1020 1127
M  V30 9011 1 1020 1128
M  V30 9012 1 1021 1029
M  V30 9013 1 1021 1030
M  V30 9014 1 1021 1085
M  V30 9015 1 1021 1087
M  V30 9016 1 1021 1103
M  V30 9017 1 1021 1105
M  V30 9018 1 1021 1120
M  V30 9019 1 1021 1122
M  V30 9020 1 1022 1023
M  V30 9021 1 1022 1073
M  V30 9022 1 1022 1074
M  V30 9023 1 1022 1075
M  V30 9024 1 1022 1127
M  V30 9025 1 1022 1128
M  V30 9026 1 1022 1129
M  V30 9027 1 1023 1074
M  V30 9028 1 1023 1075
M  V30 9029 1 1023 1128
M  V30 9030 1 1023 1129
M  V30 9031 1 1024 1025
M  V30 9032 1 1024 1033
M  V30 9033 1 1024 1069
M  V30 9034 1 1024 1070
M  V30 9035 1 1024 1091
M  V30 9036 1 1024 1093
M  V30 9037 1 1024 1095
M  V30 9038 1 1024 1108
M  V30 9039 1 1024 1110
M  V30 9040 1 1024 1112
M  V30 9041 1 1025 1026
M  V30 9042 1 1025 1033
M  V30 9043 1 1025 1034
M  V30 9044 1 1025 1069
M  V30 9045 1 1025 1070
M  V30 9046 1 1025 1071
M  V30 9047 1 1025 1093
M  V30 9048 1 1025 1095
M  V30 9049 1 1025 1097
M  V30 9050 1 1025 1110
M  V30 9051 1 1025 1112
M  V30 9052 1 1025 1114
M  V30 9053 1 1006 1026
M  V30 9054 1 1026 1027
M  V30 9055 1 1026 1033
M  V30 9056 1 1026 1034
M  V30 9057 1 1026 1070
M  V30 9058 1 1026 1071
M  V30 9059 1 1026 1072
M  V30 9060 1 1026 1095
M  V30 9061 1 1026 1097
M  V30 9062 1 1026 1099
M  V30 9063 1 1026 1112
M  V30 9064 1 1026 1114
M  V30 9065 1 1026 1116
M  V30 9066 1 1006 1027
M  V30 9067 1 1007 1027
M  V30 9068 1 1027 1028
M  V30 9069 1 1027 1034
M  V30 9070 1 1027 1071
M  V30 9071 1 1027 1072
M  V30 9072 1 1027 1073
M  V30 9073 1 1027 1097
M  V30 9074 1 1027 1099
M  V30 9075 1 1027 1101
M  V30 9076 1 1027 1114
M  V30 9077 1 1027 1116
M  V30 9078 1 1027 1118
M  V30 9079 1 1006 1028
M  V30 9080 1 1007 1028
M  V30 9081 1 1008 1028
M  V30 9082 1 1028 1029
M  V30 9083 1 1028 1072
M  V30 9084 1 1028 1073
M  V30 9085 1 1028 1074
M  V30 9086 1 1028 1099
M  V30 9087 1 1028 1101
M  V30 9088 1 1028 1103
M  V30 9089 1 1028 1116
M  V30 9090 1 1028 1118
M  V30 9091 1 1028 1120
M  V30 9092 1 1007 1029
M  V30 9093 1 1008 1029
M  V30 9094 1 1009 1029
M  V30 9095 1 1029 1030
M  V30 9096 1 1029 1073
M  V30 9097 1 1029 1074
M  V30 9098 1 1029 1075
M  V30 9099 1 1029 1101
M  V30 9100 1 1029 1103
M  V30 9101 1 1029 1105
M  V30 9102 1 1029 1118
M  V30 9103 1 1029 1120
M  V30 9104 1 1029 1122
M  V30 9105 1 1008 1030
M  V30 9106 1 1009 1030
M  V30 9107 1 1030 1074
M  V30 9108 1 1030 1075
M  V30 9109 1 1030 1103
M  V30 9110 1 1030 1105
M  V30 9111 1 1030 1120
M  V30 9112 1 1030 1122
M  V30 9113 1 1001 1031
M  V30 9114 1 1002 1031
M  V30 9115 1 1003 1031
M  V30 9116 1 1031 1032
M  V30 9117 1 1031 1130
M  V30 9118 1 1031 1131
M  V30 9119 1 1031 1132
M  V30 9120 1 1031 1145
M  V30 9121 1 1031 1146
M  V30 9122 1 1002 1032
M  V30 9123 1 1003 1032
M  V30 9124 1 1032 1131
M  V30 9125 1 1032 1132
M  V30 9126 1 1032 1145
M  V30 9127 1 1032 1146
M  V30 9128 1 1014 1033
M  V30 9129 1 1016 1033
M  V30 9130 1 1033 1034
M  V30 9131 1 1033 1068
M  V30 9132 1 1033 1069
M  V30 9133 1 1033 1070
M  V30 9134 1 1033 1071
M  V30 9135 1 1033 1076
M  V30 9136 1 1033 1110
M  V30 9137 1 1033 1112
M  V30 9138 1 1033 1114
M  V30 9139 1 1033 1125
M  V30 9140 1 1006 1034
M  V30 9141 1 1014 1034
M  V30 9142 1 1016 1034
M  V30 9143 1 1018 1034
M  V30 9144 1 1034 1068
M  V30 9145 1 1034 1070
M  V30 9146 1 1034 1071
M  V30 9147 1 1034 1072
M  V30 9148 1 1034 1112
M  V30 9149 1 1034 1114
M  V30 9150 1 1034 1116
M  V30 9151 1 1034 1125
M  V30 9152 1 1034 1126
M  V30 9153 1 1035 1047
M  V30 9154 1 1035 1144
M  V30 9155 1 1036 1037
M  V30 9156 1 1036 1045
M  V30 9157 1 1036 1046
M  V30 9158 1 1036 1048
M  V30 9159 1 1036 1133
M  V30 9160 1 1036 1134
M  V30 9161 1 1036 1135
M  V30 9162 1 1036 1140
M  V30 9163 1 1036 1141
M  V30 9164 1 1036 1145
M  V30 9165 1 1037 1039
M  V30 9166 1 1037 1046
M  V30 9167 1 1037 1048
M  V30 9168 1 1037 1050
M  V30 9169 1 1037 1134
M  V30 9170 1 1037 1135
M  V30 9171 1 1037 1136
M  V30 9172 1 1037 1141
M  V30 9173 1 1037 1145
M  V30 9174 1 1037 1146
M  V30 9175 1 1038 1040
M  V30 9176 1 1038 1047
M  V30 9177 1 1038 1049
M  V30 9178 1 1038 1051
M  V30 9179 1 1039 1048
M  V30 9180 1 1039 1050
M  V30 9181 1 1039 1135
M  V30 9182 1 1039 1136
M  V30 9183 1 1039 1145
M  V30 9184 1 1039 1146
M  V30 9185 1 1040 1041
M  V30 9186 1 1040 1049
M  V30 9187 1 1040 1051
M  V30 9188 1 1040 1052
M  V30 9189 1 1040 1153
M  V30 9190 1 1041 1051
M  V30 9191 1 1041 1052
M  V30 9192 1 1041 1153
M  V30 9193 1 1042 1043
M  V30 9194 1 1042 1053
M  V30 9195 1 1042 1137
M  V30 9196 1 1042 1138
M  V30 9197 1 1042 1143
M  V30 9198 1 1042 1144
M  V30 9199 1 1043 1044
M  V30 9200 1 1043 1053
M  V30 9201 1 1043 1054
M  V30 9202 1 1043 1137
M  V30 9203 1 1043 1138
M  V30 9204 1 1043 1139
M  V30 9205 1 1043 1143
M  V30 9206 1 1043 1144
M  V30 9207 1 1044 1045
M  V30 9208 1 1044 1053
M  V30 9209 1 1044 1054
M  V30 9210 1 1044 1055
M  V30 9211 1 1044 1133
M  V30 9212 1 1044 1138
M  V30 9213 1 1044 1139
M  V30 9214 1 1044 1140
M  V30 9215 1 1044 1144
M  V30 9216 1 1045 1046
M  V30 9217 1 1045 1054
M  V30 9218 1 1045 1055
M  V30 9219 1 1045 1056
M  V30 9220 1 1045 1133
M  V30 9221 1 1045 1134
M  V30 9222 1 1045 1139
M  V30 9223 1 1045 1140
M  V30 9224 1 1045 1141
M  V30 9225 1 1046 1048
M  V30 9226 1 1046 1055
M  V30 9227 1 1046 1056
M  V30 9228 1 1046 1057
M  V30 9229 1 1046 1133
M  V30 9230 1 1046 1134
M  V30 9231 1 1046 1135
M  V30 9232 1 1046 1140
M  V30 9233 1 1046 1141
M  V30 9234 1 1047 1049
M  V30 9235 1 1047 1065
M  V30 9236 1 1047 1160
M  V30 9237 1 1048 1050
M  V30 9238 1 1048 1056
M  V30 9239 1 1048 1057
M  V30 9240 1 1048 1134
M  V30 9241 1 1048 1135
M  V30 9242 1 1048 1136
M  V30 9243 1 1048 1141
M  V30 9244 1 1049 1051
M  V30 9245 1 1049 1065
M  V30 9246 1 1049 1066
M  V30 9247 1 1049 1160
M  V30 9248 1 1049 1162
M  V30 9249 1 1050 1057
M  V30 9250 1 1050 1135
M  V30 9251 1 1050 1136
M  V30 9252 1 1051 1052
M  V30 9253 1 1051 1065
M  V30 9254 1 1051 1066
M  V30 9255 1 1051 1067
M  V30 9256 1 1051 1153
M  V30 9257 1 1051 1160
M  V30 9258 1 1051 1162
M  V30 9259 1 1051 1164
M  V30 9260 1 1052 1066
M  V30 9261 1 1052 1067
M  V30 9262 1 1052 1153
M  V30 9263 1 1052 1162
M  V30 9264 1 1052 1164
M  V30 9265 1 1035 1053
M  V30 9266 1 1053 1054
M  V30 9267 1 1053 1137
M  V30 9268 1 1053 1138
M  V30 9269 1 1053 1139
M  V30 9270 1 1053 1143
M  V30 9271 1 1053 1144
M  V30 9272 1 1035 1054
M  V30 9273 1 1054 1055
M  V30 9274 1 1054 1138
M  V30 9275 1 1054 1139
M  V30 9276 1 1054 1140
M  V30 9277 1 1054 1144
M  V30 9278 1 1035 1055
M  V30 9279 1 1038 1055
M  V30 9280 1 1055 1056
M  V30 9281 1 1055 1139
M  V30 9282 1 1055 1140
M  V30 9283 1 1055 1141
M  V30 9284 1 1038 1056
M  V30 9285 1 1040 1056
M  V30 9286 1 1056 1057
M  V30 9287 1 1056 1140
M  V30 9288 1 1056 1141
M  V30 9289 1 1038 1057
M  V30 9290 1 1040 1057
M  V30 9291 1 1041 1057
M  V30 9292 1 1057 1141
M  V30 9293 1 1058 1078
M  V30 9294 1 1058 1092
M  V30 9295 1 1058 1094
M  V30 9296 1 1058 1096
M  V30 9297 1 1058 1149
M  V30 9298 1 1058 1150
M  V30 9299 1 1058 1151
M  V30 9300 1 1058 1158
M  V30 9301 1 1058 1159
M  V30 9302 1 1058 1161
M  V30 9303 1 1058 1170
M  V30 9304 1 1058 1172
M  V30 9305 1 1058 1059
M  V30 9306 1 1059 1064
M  V30 9307 1 1059 1149
M  V30 9308 1 1059 1150
M  V30 9309 1 1059 1170
M  V30 9310 1 1058 1060
M  V30 9311 1 1060 1061
M  V30 9312 1 1060 1078
M  V30 9313 1 1060 1080
M  V30 9314 1 1060 1150
M  V30 9315 1 1060 1151
M  V30 9316 1 1060 1152
M  V30 9317 1 1060 1160
M  V30 9318 1 1060 1170
M  V30 9319 1 1060 1172
M  V30 9320 1 1060 1174
M  V30 9321 1 1061 1062
M  V30 9322 1 1061 1078
M  V30 9323 1 1061 1080
M  V30 9324 1 1061 1082
M  V30 9325 1 1061 1151
M  V30 9326 1 1061 1152
M  V30 9327 1 1061 1154
M  V30 9328 1 1061 1160
M  V30 9329 1 1061 1162
M  V30 9330 1 1061 1172
M  V30 9331 1 1061 1174
M  V30 9332 1 1061 1176
M  V30 9333 1 1062 1063
M  V30 9334 1 1062 1080
M  V30 9335 1 1062 1082
M  V30 9336 1 1062 1084
M  V30 9337 1 1062 1152
M  V30 9338 1 1062 1154
M  V30 9339 1 1062 1155
M  V30 9340 1 1062 1160
M  V30 9341 1 1062 1162
M  V30 9342 1 1062 1164
M  V30 9343 1 1062 1174
M  V30 9344 1 1062 1176
M  V30 9345 1 1062 1178
M  V30 9346 1 1063 1082
M  V30 9347 1 1063 1084
M  V30 9348 1 1063 1154
M  V30 9349 1 1063 1155
M  V30 9350 1 1063 1162
M  V30 9351 1 1063 1164
M  V30 9352 1 1063 1176
M  V30 9353 1 1063 1178
M  V30 9354 1 1058 1064
M  V30 9355 1 1064 1090
M  V30 9356 1 1064 1092
M  V30 9357 1 1064 1094
M  V30 9358 1 1064 1149
M  V30 9359 1 1064 1150
M  V30 9360 1 1064 1157
M  V30 9361 1 1064 1158
M  V30 9362 1 1064 1159
M  V30 9363 1 1064 1170
M  V30 9364 1 1060 1065
M  V30 9365 1 1061 1065
M  V30 9366 1 1062 1065
M  V30 9367 1 1065 1066
M  V30 9368 1 1065 1160
M  V30 9369 1 1065 1162
M  V30 9370 1 1065 1172
M  V30 9371 1 1065 1174
M  V30 9372 1 1065 1176
M  V30 9373 1 1061 1066
M  V30 9374 1 1062 1066
M  V30 9375 1 1063 1066
M  V30 9376 1 1066 1067
M  V30 9377 1 1066 1153
M  V30 9378 1 1066 1160
M  V30 9379 1 1066 1162
M  V30 9380 1 1066 1164
M  V30 9381 1 1066 1174
M  V30 9382 1 1066 1176
M  V30 9383 1 1066 1178
M  V30 9384 1 1062 1067
M  V30 9385 1 1063 1067
M  V30 9386 1 1067 1153
M  V30 9387 1 1067 1162
M  V30 9388 1 1067 1164
M  V30 9389 1 1067 1176
M  V30 9390 1 1067 1178
M  V30 9391 1 1068 1125
M  V30 9392 1 1068 1194
M  V30 9393 1 1068 1196
M  V30 9394 1 1068 1217
M  V30 9395 1 1068 1218
M  V30 9396 1 1068 1219
M  V30 9397 1 1068 1069
M  V30 9398 1 1069 1070
M  V30 9399 1 1069 1076
M  V30 9400 1 1069 1194
M  V30 9401 1 1069 1205
M  V30 9402 1 1069 1206
M  V30 9403 1 1069 1208
M  V30 9404 1 1069 1217
M  V30 9405 1 1069 1218
M  V30 9406 1 1068 1070
M  V30 9407 1 1070 1071
M  V30 9408 1 1070 1076
M  V30 9409 1 1070 1125
M  V30 9410 1 1070 1194
M  V30 9411 1 1070 1196
M  V30 9412 1 1070 1206
M  V30 9413 1 1070 1208
M  V30 9414 1 1070 1209
M  V30 9415 1 1070 1217
M  V30 9416 1 1070 1218
M  V30 9417 1 1070 1219
M  V30 9418 1 1068 1071
M  V30 9419 1 1071 1072
M  V30 9420 1 1071 1125
M  V30 9421 1 1071 1126
M  V30 9422 1 1071 1194
M  V30 9423 1 1071 1196
M  V30 9424 1 1071 1198
M  V30 9425 1 1071 1208
M  V30 9426 1 1071 1209
M  V30 9427 1 1071 1210
M  V30 9428 1 1071 1218
M  V30 9429 1 1071 1219
M  V30 9430 1 1071 1220
M  V30 9431 1 1072 1073
M  V30 9432 1 1072 1125
M  V30 9433 1 1072 1126
M  V30 9434 1 1072 1127
M  V30 9435 1 1072 1196
M  V30 9436 1 1072 1198
M  V30 9437 1 1072 1200
M  V30 9438 1 1072 1209
M  V30 9439 1 1072 1210
M  V30 9440 1 1072 1211
M  V30 9441 1 1072 1219
M  V30 9442 1 1072 1220
M  V30 9443 1 1072 1221
M  V30 9444 1 1073 1074
M  V30 9445 1 1073 1126
M  V30 9446 1 1073 1127
M  V30 9447 1 1073 1128
M  V30 9448 1 1073 1198
M  V30 9449 1 1073 1200
M  V30 9450 1 1073 1202
M  V30 9451 1 1073 1210
M  V30 9452 1 1073 1211
M  V30 9453 1 1073 1212
M  V30 9454 1 1073 1220
M  V30 9455 1 1073 1221
M  V30 9456 1 1073 1222
M  V30 9457 1 1074 1075
M  V30 9458 1 1074 1127
M  V30 9459 1 1074 1128
M  V30 9460 1 1074 1129
M  V30 9461 1 1074 1200
M  V30 9462 1 1074 1202
M  V30 9463 1 1074 1204
M  V30 9464 1 1074 1211
M  V30 9465 1 1074 1212
M  V30 9466 1 1074 1213
M  V30 9467 1 1074 1221
M  V30 9468 1 1074 1222
M  V30 9469 1 1074 1223
M  V30 9470 1 1075 1128
M  V30 9471 1 1075 1129
M  V30 9472 1 1075 1202
M  V30 9473 1 1075 1204
M  V30 9474 1 1075 1212
M  V30 9475 1 1075 1213
M  V30 9476 1 1075 1222
M  V30 9477 1 1075 1223
M  V30 9478 1 1068 1076
M  V30 9479 1 1076 1194
M  V30 9480 1 1076 1217
M  V30 9481 1 1076 1218
M  V30 9482 1 1077 1079
M  V30 9483 1 1077 1093
M  V30 9484 1 1077 1095
M  V30 9485 1 1077 1097
M  V30 9486 1 1077 1148
M  V30 9487 1 1077 1169
M  V30 9488 1 1077 1171
M  V30 9489 1 1077 1173
M  V30 9490 1 1077 1182
M  V30 9491 1 1077 1183
M  V30 9492 1 1077 1191
M  V30 9493 1 1077 1192
M  V30 9494 1 1077 1193
M  V30 9495 1 1078 1080
M  V30 9496 1 1078 1094
M  V30 9497 1 1078 1096
M  V30 9498 1 1078 1098
M  V30 9499 1 1078 1150
M  V30 9500 1 1078 1151
M  V30 9501 1 1078 1152
M  V30 9502 1 1078 1159
M  V30 9503 1 1078 1161
M  V30 9504 1 1078 1163
M  V30 9505 1 1078 1170
M  V30 9506 1 1078 1172
M  V30 9507 1 1078 1174
M  V30 9508 1 1079 1081
M  V30 9509 1 1079 1095
M  V30 9510 1 1079 1097
M  V30 9511 1 1079 1099
M  V30 9512 1 1079 1171
M  V30 9513 1 1079 1173
M  V30 9514 1 1079 1175
M  V30 9515 1 1079 1182
M  V30 9516 1 1079 1183
M  V30 9517 1 1079 1184
M  V30 9518 1 1079 1192
M  V30 9519 1 1079 1193
M  V30 9520 1 1079 1195
M  V30 9521 1 1080 1082
M  V30 9522 1 1080 1096
M  V30 9523 1 1080 1098
M  V30 9524 1 1080 1100
M  V30 9525 1 1080 1151
M  V30 9526 1 1080 1152
M  V30 9527 1 1080 1154
M  V30 9528 1 1080 1161
M  V30 9529 1 1080 1163
M  V30 9530 1 1080 1165
M  V30 9531 1 1080 1172
M  V30 9532 1 1080 1174
M  V30 9533 1 1080 1176
M  V30 9534 1 1081 1083
M  V30 9535 1 1081 1097
M  V30 9536 1 1081 1099
M  V30 9537 1 1081 1101
M  V30 9538 1 1081 1173
M  V30 9539 1 1081 1175
M  V30 9540 1 1081 1177
M  V30 9541 1 1081 1183
M  V30 9542 1 1081 1184
M  V30 9543 1 1081 1185
M  V30 9544 1 1081 1193
M  V30 9545 1 1081 1195
M  V30 9546 1 1081 1197
M  V30 9547 1 1082 1084
M  V30 9548 1 1082 1098
M  V30 9549 1 1082 1100
M  V30 9550 1 1082 1102
M  V30 9551 1 1082 1152
M  V30 9552 1 1082 1154
M  V30 9553 1 1082 1155
M  V30 9554 1 1082 1163
M  V30 9555 1 1082 1165
M  V30 9556 1 1082 1166
M  V30 9557 1 1082 1174
M  V30 9558 1 1082 1176
M  V30 9559 1 1082 1178
M  V30 9560 1 1083 1085
M  V30 9561 1 1083 1099
M  V30 9562 1 1083 1101
M  V30 9563 1 1083 1103
M  V30 9564 1 1083 1175
M  V30 9565 1 1083 1177
M  V30 9566 1 1083 1179
M  V30 9567 1 1083 1184
M  V30 9568 1 1083 1185
M  V30 9569 1 1083 1186
M  V30 9570 1 1083 1195
M  V30 9571 1 1083 1197
M  V30 9572 1 1083 1199
M  V30 9573 1 1084 1100
M  V30 9574 1 1084 1102
M  V30 9575 1 1084 1154
M  V30 9576 1 1084 1155
M  V30 9577 1 1084 1165
M  V30 9578 1 1084 1166
M  V30 9579 1 1084 1176
M  V30 9580 1 1084 1178
M  V30 9581 1 1085 1087
M  V30 9582 1 1085 1101
M  V30 9583 1 1085 1103
M  V30 9584 1 1085 1105
M  V30 9585 1 1085 1177
M  V30 9586 1 1085 1179
M  V30 9587 1 1085 1180
M  V30 9588 1 1085 1185
M  V30 9589 1 1085 1186
M  V30 9590 1 1085 1187
M  V30 9591 1 1085 1197
M  V30 9592 1 1085 1199
M  V30 9593 1 1085 1201
M  V30 9594 1 1086 1088
M  V30 9595 1 1086 1104
M  V30 9596 1 1086 1106
M  V30 9597 1 1086 1156
M  V30 9598 1 1086 1167
M  V30 9599 1 1086 1168
M  V30 9600 1 1087 1103
M  V30 9601 1 1087 1105
M  V30 9602 1 1087 1179
M  V30 9603 1 1087 1180
M  V30 9604 1 1087 1186
M  V30 9605 1 1087 1187
M  V30 9606 1 1087 1199
M  V30 9607 1 1087 1201
M  V30 9608 1 1088 1090
M  V30 9609 1 1088 1104
M  V30 9610 1 1088 1106
M  V30 9611 1 1088 1107
M  V30 9612 1 1088 1156
M  V30 9613 1 1088 1157
M  V30 9614 1 1088 1167
M  V30 9615 1 1088 1168
M  V30 9616 1 1088 1169
M  V30 9617 1 1089 1091
M  V30 9618 1 1089 1108
M  V30 9619 1 1089 1147
M  V30 9620 1 1089 1181
M  V30 9621 1 1089 1188
M  V30 9622 1 1089 1203
M  V30 9623 1 1089 1205
M  V30 9624 1 1090 1092
M  V30 9625 1 1090 1106
M  V30 9626 1 1090 1107
M  V30 9627 1 1090 1109
M  V30 9628 1 1090 1149
M  V30 9629 1 1090 1157
M  V30 9630 1 1090 1158
M  V30 9631 1 1090 1168
M  V30 9632 1 1090 1169
M  V30 9633 1 1090 1171
M  V30 9634 1 1091 1093
M  V30 9635 1 1091 1108
M  V30 9636 1 1091 1110
M  V30 9637 1 1091 1147
M  V30 9638 1 1091 1148
M  V30 9639 1 1091 1181
M  V30 9640 1 1091 1188
M  V30 9641 1 1091 1191
M  V30 9642 1 1091 1203
M  V30 9643 1 1091 1205
M  V30 9644 1 1091 1206
M  V30 9645 1 1092 1094
M  V30 9646 1 1092 1107
M  V30 9647 1 1092 1109
M  V30 9648 1 1092 1111
M  V30 9649 1 1092 1149
M  V30 9650 1 1092 1150
M  V30 9651 1 1092 1157
M  V30 9652 1 1092 1158
M  V30 9653 1 1092 1159
M  V30 9654 1 1092 1169
M  V30 9655 1 1092 1171
M  V30 9656 1 1092 1173
M  V30 9657 1 1093 1095
M  V30 9658 1 1093 1108
M  V30 9659 1 1093 1110
M  V30 9660 1 1093 1112
M  V30 9661 1 1093 1147
M  V30 9662 1 1093 1148
M  V30 9663 1 1093 1181
M  V30 9664 1 1093 1182
M  V30 9665 1 1093 1191
M  V30 9666 1 1093 1192
M  V30 9667 1 1093 1205
M  V30 9668 1 1093 1206
M  V30 9669 1 1093 1208
M  V30 9670 1 1094 1096
M  V30 9671 1 1094 1109
M  V30 9672 1 1094 1111
M  V30 9673 1 1094 1113
M  V30 9674 1 1094 1149
M  V30 9675 1 1094 1150
M  V30 9676 1 1094 1151
M  V30 9677 1 1094 1158
M  V30 9678 1 1094 1159
M  V30 9679 1 1094 1161
M  V30 9680 1 1094 1171
M  V30 9681 1 1094 1173
M  V30 9682 1 1094 1175
M  V30 9683 1 1095 1097
M  V30 9684 1 1095 1110
M  V30 9685 1 1095 1112
M  V30 9686 1 1095 1114
M  V30 9687 1 1095 1148
M  V30 9688 1 1095 1182
M  V30 9689 1 1095 1183
M  V30 9690 1 1095 1191
M  V30 9691 1 1095 1192
M  V30 9692 1 1095 1193
M  V30 9693 1 1095 1206
M  V30 9694 1 1095 1208
M  V30 9695 1 1095 1209
M  V30 9696 1 1096 1098
M  V30 9697 1 1096 1111
M  V30 9698 1 1096 1113
M  V30 9699 1 1096 1115
M  V30 9700 1 1096 1150
M  V30 9701 1 1096 1151
M  V30 9702 1 1096 1152
M  V30 9703 1 1096 1159
M  V30 9704 1 1096 1161
M  V30 9705 1 1096 1163
M  V30 9706 1 1096 1173
M  V30 9707 1 1096 1175
M  V30 9708 1 1096 1177
M  V30 9709 1 1097 1099
M  V30 9710 1 1097 1112
M  V30 9711 1 1097 1114
M  V30 9712 1 1097 1116
M  V30 9713 1 1097 1182
M  V30 9714 1 1097 1183
M  V30 9715 1 1097 1184
M  V30 9716 1 1097 1192
M  V30 9717 1 1097 1193
M  V30 9718 1 1097 1195
M  V30 9719 1 1097 1208
M  V30 9720 1 1097 1209
M  V30 9721 1 1097 1210
M  V30 9722 1 1098 1100
M  V30 9723 1 1098 1113
M  V30 9724 1 1098 1115
M  V30 9725 1 1098 1117
M  V30 9726 1 1098 1151
M  V30 9727 1 1098 1152
M  V30 9728 1 1098 1154
M  V30 9729 1 1098 1161
M  V30 9730 1 1098 1163
M  V30 9731 1 1098 1165
M  V30 9732 1 1098 1175
M  V30 9733 1 1098 1177
M  V30 9734 1 1098 1179
M  V30 9735 1 1099 1101
M  V30 9736 1 1099 1114
M  V30 9737 1 1099 1116
M  V30 9738 1 1099 1118
M  V30 9739 1 1099 1183
M  V30 9740 1 1099 1184
M  V30 9741 1 1099 1185
M  V30 9742 1 1099 1193
M  V30 9743 1 1099 1195
M  V30 9744 1 1099 1197
M  V30 9745 1 1099 1209
M  V30 9746 1 1099 1210
M  V30 9747 1 1099 1211
M  V30 9748 1 1100 1102
M  V30 9749 1 1100 1115
M  V30 9750 1 1100 1117
M  V30 9751 1 1100 1119
M  V30 9752 1 1100 1152
M  V30 9753 1 1100 1154
M  V30 9754 1 1100 1155
M  V30 9755 1 1100 1163
M  V30 9756 1 1100 1165
M  V30 9757 1 1100 1166
M  V30 9758 1 1100 1177
M  V30 9759 1 1100 1179
M  V30 9760 1 1100 1180
M  V30 9761 1 1101 1103
M  V30 9762 1 1101 1116
M  V30 9763 1 1101 1118
M  V30 9764 1 1101 1120
M  V30 9765 1 1101 1184
M  V30 9766 1 1101 1185
M  V30 9767 1 1101 1186
M  V30 9768 1 1101 1195
M  V30 9769 1 1101 1197
M  V30 9770 1 1101 1199
M  V30 9771 1 1101 1210
M  V30 9772 1 1101 1211
M  V30 9773 1 1101 1212
M  V30 9774 1 1102 1117
M  V30 9775 1 1102 1119
M  V30 9776 1 1102 1154
M  V30 9777 1 1102 1155
M  V30 9778 1 1102 1165
M  V30 9779 1 1102 1166
M  V30 9780 1 1102 1179
M  V30 9781 1 1102 1180
M  V30 9782 1 1103 1105
M  V30 9783 1 1103 1118
M  V30 9784 1 1103 1120
M  V30 9785 1 1103 1122
M  V30 9786 1 1103 1185
M  V30 9787 1 1103 1186
M  V30 9788 1 1103 1187
M  V30 9789 1 1103 1197
M  V30 9790 1 1103 1199
M  V30 9791 1 1103 1201
M  V30 9792 1 1103 1211
M  V30 9793 1 1103 1212
M  V30 9794 1 1103 1213
M  V30 9795 1 1104 1106
M  V30 9796 1 1104 1121
M  V30 9797 1 1104 1123
M  V30 9798 1 1104 1147
M  V30 9799 1 1104 1156
M  V30 9800 1 1104 1167
M  V30 9801 1 1104 1168
M  V30 9802 1 1105 1120
M  V30 9803 1 1105 1122
M  V30 9804 1 1105 1186
M  V30 9805 1 1105 1187
M  V30 9806 1 1105 1199
M  V30 9807 1 1105 1201
M  V30 9808 1 1105 1212
M  V30 9809 1 1105 1213
M  V30 9810 1 1106 1107
M  V30 9811 1 1106 1121
M  V30 9812 1 1106 1123
M  V30 9813 1 1106 1124
M  V30 9814 1 1106 1147
M  V30 9815 1 1106 1148
M  V30 9816 1 1106 1156
M  V30 9817 1 1106 1157
M  V30 9818 1 1106 1167
M  V30 9819 1 1106 1168
M  V30 9820 1 1106 1169
M  V30 9821 1 1077 1107
M  V30 9822 1 1107 1109
M  V30 9823 1 1107 1123
M  V30 9824 1 1107 1124
M  V30 9825 1 1107 1147
M  V30 9826 1 1107 1148
M  V30 9827 1 1107 1157
M  V30 9828 1 1107 1158
M  V30 9829 1 1107 1168
M  V30 9830 1 1107 1169
M  V30 9831 1 1107 1171
M  V30 9832 1 1107 1182
M  V30 9833 1 1069 1108
M  V30 9834 1 1108 1110
M  V30 9835 1 1108 1181
M  V30 9836 1 1108 1188
M  V30 9837 1 1108 1191
M  V30 9838 1 1108 1203
M  V30 9839 1 1108 1205
M  V30 9840 1 1108 1206
M  V30 9841 1 1108 1215
M  V30 9842 1 1108 1217
M  V30 9843 1 1077 1109
M  V30 9844 1 1079 1109
M  V30 9845 1 1109 1111
M  V30 9846 1 1109 1124
M  V30 9847 1 1109 1148
M  V30 9848 1 1109 1157
M  V30 9849 1 1109 1158
M  V30 9850 1 1109 1159
M  V30 9851 1 1109 1169
M  V30 9852 1 1109 1171
M  V30 9853 1 1109 1173
M  V30 9854 1 1109 1182
M  V30 9855 1 1109 1183
M  V30 9856 1 1069 1110
M  V30 9857 1 1070 1110
M  V30 9858 1 1110 1112
M  V30 9859 1 1110 1181
M  V30 9860 1 1110 1191
M  V30 9861 1 1110 1192
M  V30 9862 1 1110 1205
M  V30 9863 1 1110 1206
M  V30 9864 1 1110 1208
M  V30 9865 1 1110 1217
M  V30 9866 1 1110 1218
M  V30 9867 1 1077 1111
M  V30 9868 1 1079 1111
M  V30 9869 1 1081 1111
M  V30 9870 1 1111 1113
M  V30 9871 1 1111 1158
M  V30 9872 1 1111 1159
M  V30 9873 1 1111 1161
M  V30 9874 1 1111 1171
M  V30 9875 1 1111 1173
M  V30 9876 1 1111 1175
M  V30 9877 1 1111 1182
M  V30 9878 1 1111 1183
M  V30 9879 1 1111 1184
M  V30 9880 1 1069 1112
M  V30 9881 1 1070 1112
M  V30 9882 1 1071 1112
M  V30 9883 1 1112 1114
M  V30 9884 1 1112 1191
M  V30 9885 1 1112 1192
M  V30 9886 1 1112 1193
M  V30 9887 1 1112 1206
M  V30 9888 1 1112 1208
M  V30 9889 1 1112 1209
M  V30 9890 1 1112 1217
M  V30 9891 1 1112 1218
M  V30 9892 1 1112 1219
M  V30 9893 1 1079 1113
M  V30 9894 1 1081 1113
M  V30 9895 1 1083 1113
M  V30 9896 1 1113 1115
M  V30 9897 1 1113 1159
M  V30 9898 1 1113 1161
M  V30 9899 1 1113 1163
M  V30 9900 1 1113 1173
M  V30 9901 1 1113 1175
M  V30 9902 1 1113 1177
M  V30 9903 1 1113 1183
M  V30 9904 1 1113 1184
M  V30 9905 1 1113 1185
M  V30 9906 1 1070 1114
M  V30 9907 1 1071 1114
M  V30 9908 1 1072 1114
M  V30 9909 1 1114 1116
M  V30 9910 1 1114 1192
M  V30 9911 1 1114 1193
M  V30 9912 1 1114 1195
M  V30 9913 1 1114 1208
M  V30 9914 1 1114 1209
M  V30 9915 1 1114 1210
M  V30 9916 1 1114 1218
M  V30 9917 1 1114 1219
M  V30 9918 1 1114 1220
M  V30 9919 1 1081 1115
M  V30 9920 1 1083 1115
M  V30 9921 1 1085 1115
M  V30 9922 1 1115 1117
M  V30 9923 1 1115 1161
M  V30 9924 1 1115 1163
M  V30 9925 1 1115 1165
M  V30 9926 1 1115 1175
M  V30 9927 1 1115 1177
M  V30 9928 1 1115 1179
M  V30 9929 1 1115 1184
M  V30 9930 1 1115 1185
M  V30 9931 1 1115 1186
M  V30 9932 1 1071 1116
M  V30 9933 1 1072 1116
M  V30 9934 1 1073 1116
M  V30 9935 1 1116 1118
M  V30 9936 1 1116 1193
M  V30 9937 1 1116 1195
M  V30 9938 1 1116 1197
M  V30 9939 1 1116 1209
M  V30 9940 1 1116 1210
M  V30 9941 1 1116 1211
M  V30 9942 1 1116 1219
M  V30 9943 1 1116 1220
M  V30 9944 1 1116 1221
M  V30 9945 1 1083 1117
M  V30 9946 1 1085 1117
M  V30 9947 1 1087 1117
M  V30 9948 1 1117 1119
M  V30 9949 1 1117 1163
M  V30 9950 1 1117 1165
M  V30 9951 1 1117 1166
M  V30 9952 1 1117 1177
M  V30 9953 1 1117 1179
M  V30 9954 1 1117 1180
M  V30 9955 1 1117 1185
M  V30 9956 1 1117 1186
M  V30 9957 1 1117 1187
M  V30 9958 1 1072 1118
M  V30 9959 1 1073 1118
M  V30 9960 1 1074 1118
M  V30 9961 1 1118 1120
M  V30 9962 1 1118 1195
M  V30 9963 1 1118 1197
M  V30 9964 1 1118 1199
M  V30 9965 1 1118 1210
M  V30 9966 1 1118 1211
M  V30 9967 1 1118 1212
M  V30 9968 1 1118 1220
M  V30 9969 1 1118 1221
M  V30 9970 1 1118 1222
M  V30 9971 1 1085 1119
M  V30 9972 1 1087 1119
M  V30 9973 1 1119 1165
M  V30 9974 1 1119 1166
M  V30 9975 1 1119 1179
M  V30 9976 1 1119 1180
M  V30 9977 1 1119 1186
M  V30 9978 1 1119 1187
M  V30 9979 1 1073 1120
M  V30 9980 1 1074 1120
M  V30 9981 1 1075 1120
M  V30 9982 1 1120 1122
M  V30 9983 1 1120 1197
M  V30 9984 1 1120 1199
M  V30 9985 1 1120 1201
M  V30 9986 1 1120 1211
M  V30 9987 1 1120 1212
M  V30 9988 1 1120 1213
M  V30 9989 1 1120 1221
M  V30 9990 1 1120 1222
M  V30 9991 1 1120 1223
M  V30 9992 1 1089 1121
M  V30 9993 1 1091 1121
M  V30 9994 1 1121 1123
M  V30 9995 1 1121 1147
M  V30 9996 1 1121 1167
M  V30 9997 1 1121 1168
M  V30 9998 1 1121 1181
M  V30 9999 1 1121 1188
M  V30 10000 1 1074 1122
M  V30 10001 1 1075 1122
M  V30 10002 1 1122 1199
M  V30 10003 1 1122 1201
M  V30 10004 1 1122 1212
M  V30 10005 1 1122 1213
M  V30 10006 1 1122 1222
M  V30 10007 1 1122 1223
M  V30 10008 1 1089 1123
M  V30 10009 1 1091 1123
M  V30 10010 1 1093 1123
M  V30 10011 1 1123 1124
M  V30 10012 1 1123 1147
M  V30 10013 1 1123 1148
M  V30 10014 1 1123 1167
M  V30 10015 1 1123 1168
M  V30 10016 1 1123 1169
M  V30 10017 1 1123 1181
M  V30 10018 1 1123 1188
M  V30 10019 1 1123 1191
M  V30 10020 1 1077 1124
M  V30 10021 1 1091 1124
M  V30 10022 1 1093 1124
M  V30 10023 1 1095 1124
M  V30 10024 1 1124 1147
M  V30 10025 1 1124 1148
M  V30 10026 1 1124 1168
M  V30 10027 1 1124 1169
M  V30 10028 1 1124 1171
M  V30 10029 1 1124 1181
M  V30 10030 1 1124 1182
M  V30 10031 1 1124 1191
M  V30 10032 1 1124 1192
M  V30 10033 1 1125 1126
M  V30 10034 1 1125 1194
M  V30 10035 1 1125 1196
M  V30 10036 1 1125 1198
M  V30 10037 1 1125 1218
M  V30 10038 1 1125 1219
M  V30 10039 1 1125 1220
M  V30 10040 1 1126 1127
M  V30 10041 1 1126 1196
M  V30 10042 1 1126 1198
M  V30 10043 1 1126 1200
M  V30 10044 1 1126 1219
M  V30 10045 1 1126 1220
M  V30 10046 1 1126 1221
M  V30 10047 1 1127 1128
M  V30 10048 1 1127 1198
M  V30 10049 1 1127 1200
M  V30 10050 1 1127 1202
M  V30 10051 1 1127 1220
M  V30 10052 1 1127 1221
M  V30 10053 1 1127 1222
M  V30 10054 1 1128 1129
M  V30 10055 1 1128 1200
M  V30 10056 1 1128 1202
M  V30 10057 1 1128 1204
M  V30 10058 1 1128 1221
M  V30 10059 1 1128 1222
M  V30 10060 1 1128 1223
M  V30 10061 1 1129 1202
M  V30 10062 1 1129 1204
M  V30 10063 1 1129 1222
M  V30 10064 1 1129 1223
M  V30 10065 1 1130 1131
M  V30 10066 1 1130 1145
M  V30 10067 1 1130 1214
M  V30 10068 1 1131 1132
M  V30 10069 1 1131 1145
M  V30 10070 1 1131 1146
M  V30 10071 1 1131 1189
M  V30 10072 1 1131 1214
M  V30 10073 1 1131 1216
M  V30 10074 1 1132 1145
M  V30 10075 1 1132 1146
M  V30 10076 1 1132 1189
M  V30 10077 1 1132 1214
M  V30 10078 1 1132 1216
M  V30 10079 1 1133 1134
M  V30 10080 1 1133 1139
M  V30 10081 1 1133 1140
M  V30 10082 1 1133 1141
M  V30 10083 1 1133 1224
M  V30 10084 1 1133 1225
M  V30 10085 1 1134 1135
M  V30 10086 1 1134 1140
M  V30 10087 1 1134 1141
M  V30 10088 1 1134 1190
M  V30 10089 1 1134 1225
M  V30 10090 1 1135 1136
M  V30 10091 1 1135 1141
M  V30 10092 1 1135 1189
M  V30 10093 1 1135 1190
M  V30 10094 1 1135 1225
M  V30 10095 1 1136 1189
M  V30 10096 1 1136 1190
M  V30 10097 1 1137 1138
M  V30 10098 1 1137 1143
M  V30 10099 1 1137 1144
M  V30 10100 1 1137 1227
M  V30 10101 1 1137 1228
M  V30 10102 1 1138 1139
M  V30 10103 1 1138 1143
M  V30 10104 1 1138 1144
M  V30 10105 1 1138 1224
M  V30 10106 1 1138 1227
M  V30 10107 1 1138 1228
M  V30 10108 1 1139 1140
M  V30 10109 1 1139 1144
M  V30 10110 1 1139 1224
M  V30 10111 1 1139 1228
M  V30 10112 1 1140 1141
M  V30 10113 1 1140 1224
M  V30 10114 1 1140 1225
M  V30 10115 1 1141 1190
M  V30 10116 1 1141 1225
M  V30 10117 1 1142 1226
M  V30 10118 1 1142 1229
M  V30 10119 1 1143 1144
M  V30 10120 1 1143 1227
M  V30 10121 1 1143 1228
M  V30 10122 1 1143 1230
M  V30 10123 1 1144 1224
M  V30 10124 1 1144 1227
M  V30 10125 1 1144 1228
M  V30 10126 1 1144 1230
M  V30 10127 1 1134 1145
M  V30 10128 1 1135 1145
M  V30 10129 1 1136 1145
M  V30 10130 1 1145 1146
M  V30 10131 1 1145 1189
M  V30 10132 1 1145 1190
M  V30 10133 1 1145 1214
M  V30 10134 1 1145 1216
M  V30 10135 1 1135 1146
M  V30 10136 1 1136 1146
M  V30 10137 1 1146 1189
M  V30 10138 1 1146 1190
M  V30 10139 1 1146 1214
M  V30 10140 1 1146 1216
M  V30 10141 1 1147 1148
M  V30 10142 1 1147 1181
M  V30 10143 1 1147 1188
M  V30 10144 1 1147 1191
M  V30 10145 1 1147 1255
M  V30 10146 1 1147 1257
M  V30 10147 1 1147 1259
M  V30 10148 1 1147 1270
M  V30 10149 1 1147 1272
M  V30 10150 1 1147 1274
M  V30 10151 1 1147 1288
M  V30 10152 1 1147 1290
M  V30 10153 1 1147 1292
M  V30 10154 1 1148 1181
M  V30 10155 1 1148 1182
M  V30 10156 1 1148 1191
M  V30 10157 1 1148 1192
M  V30 10158 1 1148 1257
M  V30 10159 1 1148 1259
M  V30 10160 1 1148 1261
M  V30 10161 1 1148 1272
M  V30 10162 1 1148 1274
M  V30 10163 1 1148 1276
M  V30 10164 1 1148 1290
M  V30 10165 1 1148 1292
M  V30 10166 1 1148 1294
M  V30 10167 1 1149 1150
M  V30 10168 1 1149 1157
M  V30 10169 1 1149 1158
M  V30 10170 1 1149 1159
M  V30 10171 1 1149 1234
M  V30 10172 1 1149 1235
M  V30 10173 1 1149 1240
M  V30 10174 1 1149 1256
M  V30 10175 1 1149 1258
M  V30 10176 1 1149 1260
M  V30 10177 1 1150 1151
M  V30 10178 1 1150 1158
M  V30 10179 1 1150 1159
M  V30 10180 1 1150 1161
M  V30 10181 1 1150 1234
M  V30 10182 1 1150 1235
M  V30 10183 1 1150 1236
M  V30 10184 1 1150 1240
M  V30 10185 1 1150 1258
M  V30 10186 1 1150 1260
M  V30 10187 1 1150 1262
M  V30 10188 1 1151 1152
M  V30 10189 1 1151 1159
M  V30 10190 1 1151 1161
M  V30 10191 1 1151 1163
M  V30 10192 1 1151 1235
M  V30 10193 1 1151 1236
M  V30 10194 1 1151 1237
M  V30 10195 1 1151 1241
M  V30 10196 1 1151 1260
M  V30 10197 1 1151 1262
M  V30 10198 1 1151 1264
M  V30 10199 1 1152 1154
M  V30 10200 1 1152 1161
M  V30 10201 1 1152 1163
M  V30 10202 1 1152 1165
M  V30 10203 1 1152 1232
M  V30 10204 1 1152 1236
M  V30 10205 1 1152 1237
M  V30 10206 1 1152 1238
M  V30 10207 1 1152 1241
M  V30 10208 1 1152 1262
M  V30 10209 1 1152 1264
M  V30 10210 1 1152 1266
M  V30 10211 1 1153 1162
M  V30 10212 1 1153 1164
M  V30 10213 1 1153 1239
M  V30 10214 1 1154 1155
M  V30 10215 1 1154 1163
M  V30 10216 1 1154 1165
M  V30 10217 1 1154 1166
M  V30 10218 1 1154 1231
M  V30 10219 1 1154 1232
M  V30 10220 1 1154 1233
M  V30 10221 1 1154 1237
M  V30 10222 1 1154 1238
M  V30 10223 1 1154 1241
M  V30 10224 1 1154 1264
M  V30 10225 1 1154 1266
M  V30 10226 1 1154 1268
M  V30 10227 1 1155 1165
M  V30 10228 1 1155 1166
M  V30 10229 1 1155 1231
M  V30 10230 1 1155 1232
M  V30 10231 1 1155 1233
M  V30 10232 1 1155 1238
M  V30 10233 1 1155 1266
M  V30 10234 1 1155 1268
M  V30 10235 1 1156 1167
M  V30 10236 1 1156 1168
M  V30 10237 1 1156 1254
M  V30 10238 1 1156 1270
M  V30 10239 1 1156 1272
M  V30 10240 1 1157 1158
M  V30 10241 1 1157 1168
M  V30 10242 1 1157 1169
M  V30 10243 1 1157 1171
M  V30 10244 1 1157 1234
M  V30 10245 1 1157 1254
M  V30 10246 1 1157 1256
M  V30 10247 1 1157 1258
M  V30 10248 1 1157 1272
M  V30 10249 1 1157 1274
M  V30 10250 1 1157 1276
M  V30 10251 1 1158 1159
M  V30 10252 1 1158 1169
M  V30 10253 1 1158 1171
M  V30 10254 1 1158 1173
M  V30 10255 1 1158 1234
M  V30 10256 1 1158 1235
M  V30 10257 1 1158 1256
M  V30 10258 1 1158 1258
M  V30 10259 1 1158 1260
M  V30 10260 1 1158 1274
M  V30 10261 1 1158 1276
M  V30 10262 1 1158 1278
M  V30 10263 1 1159 1161
M  V30 10264 1 1159 1171
M  V30 10265 1 1159 1173
M  V30 10266 1 1159 1175
M  V30 10267 1 1159 1234
M  V30 10268 1 1159 1235
M  V30 10269 1 1159 1236
M  V30 10270 1 1159 1258
M  V30 10271 1 1159 1260
M  V30 10272 1 1159 1262
M  V30 10273 1 1159 1276
M  V30 10274 1 1159 1278
M  V30 10275 1 1159 1280
M  V30 10276 1 1160 1162
M  V30 10277 1 1160 1172
M  V30 10278 1 1160 1174
M  V30 10279 1 1160 1176
M  V30 10280 1 1160 1232
M  V30 10281 1 1160 1241
M  V30 10282 1 1161 1163
M  V30 10283 1 1161 1173
M  V30 10284 1 1161 1175
M  V30 10285 1 1161 1177
M  V30 10286 1 1161 1235
M  V30 10287 1 1161 1236
M  V30 10288 1 1161 1237
M  V30 10289 1 1161 1260
M  V30 10290 1 1161 1262
M  V30 10291 1 1161 1264
M  V30 10292 1 1161 1278
M  V30 10293 1 1161 1280
M  V30 10294 1 1161 1282
M  V30 10295 1 1162 1164
M  V30 10296 1 1162 1174
M  V30 10297 1 1162 1176
M  V30 10298 1 1162 1178
M  V30 10299 1 1162 1232
M  V30 10300 1 1162 1233
M  V30 10301 1 1162 1239
M  V30 10302 1 1162 1241
M  V30 10303 1 1163 1165
M  V30 10304 1 1163 1175
M  V30 10305 1 1163 1177
M  V30 10306 1 1163 1179
M  V30 10307 1 1163 1236
M  V30 10308 1 1163 1237
M  V30 10309 1 1163 1238
M  V30 10310 1 1163 1262
M  V30 10311 1 1163 1264
M  V30 10312 1 1163 1266
M  V30 10313 1 1163 1280
M  V30 10314 1 1163 1282
M  V30 10315 1 1163 1284
M  V30 10316 1 1164 1176
M  V30 10317 1 1164 1178
M  V30 10318 1 1164 1232
M  V30 10319 1 1164 1233
M  V30 10320 1 1164 1239
M  V30 10321 1 1165 1166
M  V30 10322 1 1165 1177
M  V30 10323 1 1165 1179
M  V30 10324 1 1165 1180
M  V30 10325 1 1165 1231
M  V30 10326 1 1165 1237
M  V30 10327 1 1165 1238
M  V30 10328 1 1165 1264
M  V30 10329 1 1165 1266
M  V30 10330 1 1165 1268
M  V30 10331 1 1165 1282
M  V30 10332 1 1165 1284
M  V30 10333 1 1165 1286
M  V30 10334 1 1166 1179
M  V30 10335 1 1166 1180
M  V30 10336 1 1166 1231
M  V30 10337 1 1166 1238
M  V30 10338 1 1166 1266
M  V30 10339 1 1166 1268
M  V30 10340 1 1166 1284
M  V30 10341 1 1166 1286
M  V30 10342 1 1147 1167
M  V30 10343 1 1167 1168
M  V30 10344 1 1167 1254
M  V30 10345 1 1167 1270
M  V30 10346 1 1167 1272
M  V30 10347 1 1167 1288
M  V30 10348 1 1167 1290
M  V30 10349 1 1147 1168
M  V30 10350 1 1148 1168
M  V30 10351 1 1168 1169
M  V30 10352 1 1168 1254
M  V30 10353 1 1168 1256
M  V30 10354 1 1168 1270
M  V30 10355 1 1168 1272
M  V30 10356 1 1168 1274
M  V30 10357 1 1168 1288
M  V30 10358 1 1168 1290
M  V30 10359 1 1168 1292
M  V30 10360 1 1147 1169
M  V30 10361 1 1148 1169
M  V30 10362 1 1169 1171
M  V30 10363 1 1169 1182
M  V30 10364 1 1169 1254
M  V30 10365 1 1169 1256
M  V30 10366 1 1169 1258
M  V30 10367 1 1169 1272
M  V30 10368 1 1169 1274
M  V30 10369 1 1169 1276
M  V30 10370 1 1169 1290
M  V30 10371 1 1169 1292
M  V30 10372 1 1169 1294
M  V30 10373 1 1149 1170
M  V30 10374 1 1150 1170
M  V30 10375 1 1151 1170
M  V30 10376 1 1170 1172
M  V30 10377 1 1170 1234
M  V30 10378 1 1170 1235
M  V30 10379 1 1170 1236
M  V30 10380 1 1170 1240
M  V30 10381 1 1148 1171
M  V30 10382 1 1171 1173
M  V30 10383 1 1171 1182
M  V30 10384 1 1171 1183
M  V30 10385 1 1171 1256
M  V30 10386 1 1171 1258
M  V30 10387 1 1171 1260
M  V30 10388 1 1171 1274
M  V30 10389 1 1171 1276
M  V30 10390 1 1171 1278
M  V30 10391 1 1171 1292
M  V30 10392 1 1171 1294
M  V30 10393 1 1171 1296
M  V30 10394 1 1150 1172
M  V30 10395 1 1151 1172
M  V30 10396 1 1152 1172
M  V30 10397 1 1172 1174
M  V30 10398 1 1172 1235
M  V30 10399 1 1172 1236
M  V30 10400 1 1172 1237
M  V30 10401 1 1172 1241
M  V30 10402 1 1173 1175
M  V30 10403 1 1173 1182
M  V30 10404 1 1173 1183
M  V30 10405 1 1173 1184
M  V30 10406 1 1173 1258
M  V30 10407 1 1173 1260
M  V30 10408 1 1173 1262
M  V30 10409 1 1173 1276
M  V30 10410 1 1173 1278
M  V30 10411 1 1173 1280
M  V30 10412 1 1173 1294
M  V30 10413 1 1173 1296
M  V30 10414 1 1173 1298
M  V30 10415 1 1151 1174
M  V30 10416 1 1152 1174
M  V30 10417 1 1154 1174
M  V30 10418 1 1174 1176
M  V30 10419 1 1174 1232
M  V30 10420 1 1174 1236
M  V30 10421 1 1174 1237
M  V30 10422 1 1174 1238
M  V30 10423 1 1174 1241
M  V30 10424 1 1175 1177
M  V30 10425 1 1175 1183
M  V30 10426 1 1175 1184
M  V30 10427 1 1175 1185
M  V30 10428 1 1175 1260
M  V30 10429 1 1175 1262
M  V30 10430 1 1175 1264
M  V30 10431 1 1175 1278
M  V30 10432 1 1175 1280
M  V30 10433 1 1175 1282
M  V30 10434 1 1175 1296
M  V30 10435 1 1175 1298
M  V30 10436 1 1175 1300
M  V30 10437 1 1152 1176
M  V30 10438 1 1154 1176
M  V30 10439 1 1155 1176
M  V30 10440 1 1176 1178
M  V30 10441 1 1176 1231
M  V30 10442 1 1176 1232
M  V30 10443 1 1176 1233
M  V30 10444 1 1176 1237
M  V30 10445 1 1176 1238
M  V30 10446 1 1176 1239
M  V30 10447 1 1176 1241
M  V30 10448 1 1177 1179
M  V30 10449 1 1177 1184
M  V30 10450 1 1177 1185
M  V30 10451 1 1177 1186
M  V30 10452 1 1177 1252
M  V30 10453 1 1177 1262
M  V30 10454 1 1177 1264
M  V30 10455 1 1177 1266
M  V30 10456 1 1177 1280
M  V30 10457 1 1177 1282
M  V30 10458 1 1177 1284
M  V30 10459 1 1177 1298
M  V30 10460 1 1177 1300
M  V30 10461 1 1154 1178
M  V30 10462 1 1155 1178
M  V30 10463 1 1178 1231
M  V30 10464 1 1178 1232
M  V30 10465 1 1178 1233
M  V30 10466 1 1178 1238
M  V30 10467 1 1178 1239
M  V30 10468 1 1179 1180
M  V30 10469 1 1179 1185
M  V30 10470 1 1179 1186
M  V30 10471 1 1179 1187
M  V30 10472 1 1179 1252
M  V30 10473 1 1179 1253
M  V30 10474 1 1179 1264
M  V30 10475 1 1179 1266
M  V30 10476 1 1179 1268
M  V30 10477 1 1179 1282
M  V30 10478 1 1179 1284
M  V30 10479 1 1179 1286
M  V30 10480 1 1179 1300
M  V30 10481 1 1180 1186
M  V30 10482 1 1180 1187
M  V30 10483 1 1180 1252
M  V30 10484 1 1180 1253
M  V30 10485 1 1180 1266
M  V30 10486 1 1180 1268
M  V30 10487 1 1180 1284
M  V30 10488 1 1180 1286
M  V30 10489 1 1181 1191
M  V30 10490 1 1181 1203
M  V30 10491 1 1181 1205
M  V30 10492 1 1181 1206
M  V30 10493 1 1181 1255
M  V30 10494 1 1181 1257
M  V30 10495 1 1181 1259
M  V30 10496 1 1181 1273
M  V30 10497 1 1181 1275
M  V30 10498 1 1181 1277
M  V30 10499 1 1181 1288
M  V30 10500 1 1181 1290
M  V30 10501 1 1181 1292
M  V30 10502 1 1182 1183
M  V30 10503 1 1182 1191
M  V30 10504 1 1182 1192
M  V30 10505 1 1182 1193
M  V30 10506 1 1182 1259
M  V30 10507 1 1182 1261
M  V30 10508 1 1182 1263
M  V30 10509 1 1182 1274
M  V30 10510 1 1182 1276
M  V30 10511 1 1182 1278
M  V30 10512 1 1182 1292
M  V30 10513 1 1182 1294
M  V30 10514 1 1182 1296
M  V30 10515 1 1183 1184
M  V30 10516 1 1183 1192
M  V30 10517 1 1183 1193
M  V30 10518 1 1183 1195
M  V30 10519 1 1183 1261
M  V30 10520 1 1183 1263
M  V30 10521 1 1183 1265
M  V30 10522 1 1183 1276
M  V30 10523 1 1183 1278
M  V30 10524 1 1183 1280
M  V30 10525 1 1183 1294
M  V30 10526 1 1183 1296
M  V30 10527 1 1183 1298
M  V30 10528 1 1184 1185
M  V30 10529 1 1184 1193
M  V30 10530 1 1184 1195
M  V30 10531 1 1184 1197
M  V30 10532 1 1184 1263
M  V30 10533 1 1184 1265
M  V30 10534 1 1184 1267
M  V30 10535 1 1184 1278
M  V30 10536 1 1184 1280
M  V30 10537 1 1184 1282
M  V30 10538 1 1184 1296
M  V30 10539 1 1184 1298
M  V30 10540 1 1184 1300
M  V30 10541 1 1185 1186
M  V30 10542 1 1185 1195
M  V30 10543 1 1185 1197
M  V30 10544 1 1185 1199
M  V30 10545 1 1185 1252
M  V30 10546 1 1185 1265
M  V30 10547 1 1185 1267
M  V30 10548 1 1185 1269
M  V30 10549 1 1185 1280
M  V30 10550 1 1185 1282
M  V30 10551 1 1185 1284
M  V30 10552 1 1185 1298
M  V30 10553 1 1185 1300
M  V30 10554 1 1186 1187
M  V30 10555 1 1186 1197
M  V30 10556 1 1186 1199
M  V30 10557 1 1186 1201
M  V30 10558 1 1186 1252
M  V30 10559 1 1186 1253
M  V30 10560 1 1186 1267
M  V30 10561 1 1186 1269
M  V30 10562 1 1186 1271
M  V30 10563 1 1186 1282
M  V30 10564 1 1186 1284
M  V30 10565 1 1186 1286
M  V30 10566 1 1186 1300
M  V30 10567 1 1187 1199
M  V30 10568 1 1187 1201
M  V30 10569 1 1187 1252
M  V30 10570 1 1187 1253
M  V30 10571 1 1187 1269
M  V30 10572 1 1187 1271
M  V30 10573 1 1187 1284
M  V30 10574 1 1187 1286
M  V30 10575 1 1181 1188
M  V30 10576 1 1188 1203
M  V30 10577 1 1188 1205
M  V30 10578 1 1188 1255
M  V30 10579 1 1188 1257
M  V30 10580 1 1188 1273
M  V30 10581 1 1188 1275
M  V30 10582 1 1188 1288
M  V30 10583 1 1188 1290
M  V30 10584 1 1189 1190
M  V30 10585 1 1189 1307
M  V30 10586 1 1189 1313
M  V30 10587 1 1189 1314
M  V30 10588 1 1189 1319
M  V30 10589 1 1189 1320
M  V30 10590 1 1190 1225
M  V30 10591 1 1190 1307
M  V30 10592 1 1190 1319
M  V30 10593 1 1190 1320
M  V30 10594 1 1191 1192
M  V30 10595 1 1191 1205
M  V30 10596 1 1191 1206
M  V30 10597 1 1191 1208
M  V30 10598 1 1191 1257
M  V30 10599 1 1191 1259
M  V30 10600 1 1191 1261
M  V30 10601 1 1191 1275
M  V30 10602 1 1191 1277
M  V30 10603 1 1191 1279
M  V30 10604 1 1191 1290
M  V30 10605 1 1191 1292
M  V30 10606 1 1191 1294
M  V30 10607 1 1192 1193
M  V30 10608 1 1192 1206
M  V30 10609 1 1192 1208
M  V30 10610 1 1192 1209
M  V30 10611 1 1192 1259
M  V30 10612 1 1192 1261
M  V30 10613 1 1192 1263
M  V30 10614 1 1192 1277
M  V30 10615 1 1192 1279
M  V30 10616 1 1192 1281
M  V30 10617 1 1192 1292
M  V30 10618 1 1192 1294
M  V30 10619 1 1192 1296
M  V30 10620 1 1193 1195
M  V30 10621 1 1193 1208
M  V30 10622 1 1193 1209
M  V30 10623 1 1193 1210
M  V30 10624 1 1193 1261
M  V30 10625 1 1193 1263
M  V30 10626 1 1193 1265
M  V30 10627 1 1193 1279
M  V30 10628 1 1193 1281
M  V30 10629 1 1193 1283
M  V30 10630 1 1193 1294
M  V30 10631 1 1193 1296
M  V30 10632 1 1193 1298
M  V30 10633 1 1194 1196
M  V30 10634 1 1194 1247
M  V30 10635 1 1194 1248
M  V30 10636 1 1194 1249
M  V30 10637 1 1194 1295
M  V30 10638 1 1194 1297
M  V30 10639 1 1194 1299
M  V30 10640 1 1195 1197
M  V30 10641 1 1195 1209
M  V30 10642 1 1195 1210
M  V30 10643 1 1195 1211
M  V30 10644 1 1195 1263
M  V30 10645 1 1195 1265
M  V30 10646 1 1195 1267
M  V30 10647 1 1195 1281
M  V30 10648 1 1195 1283
M  V30 10649 1 1195 1285
M  V30 10650 1 1195 1296
M  V30 10651 1 1195 1298
M  V30 10652 1 1195 1300
M  V30 10653 1 1196 1198
M  V30 10654 1 1196 1248
M  V30 10655 1 1196 1249
M  V30 10656 1 1196 1250
M  V30 10657 1 1196 1297
M  V30 10658 1 1196 1299
M  V30 10659 1 1196 1301
M  V30 10660 1 1197 1199
M  V30 10661 1 1197 1210
M  V30 10662 1 1197 1211
M  V30 10663 1 1197 1212
M  V30 10664 1 1197 1252
M  V30 10665 1 1197 1265
M  V30 10666 1 1197 1267
M  V30 10667 1 1197 1269
M  V30 10668 1 1197 1283
M  V30 10669 1 1197 1285
M  V30 10670 1 1197 1287
M  V30 10671 1 1197 1298
M  V30 10672 1 1197 1300
M  V30 10673 1 1198 1200
M  V30 10674 1 1198 1243
M  V30 10675 1 1198 1249
M  V30 10676 1 1198 1250
M  V30 10677 1 1198 1251
M  V30 10678 1 1198 1299
M  V30 10679 1 1198 1301
M  V30 10680 1 1199 1201
M  V30 10681 1 1199 1211
M  V30 10682 1 1199 1212
M  V30 10683 1 1199 1213
M  V30 10684 1 1199 1252
M  V30 10685 1 1199 1253
M  V30 10686 1 1199 1267
M  V30 10687 1 1199 1269
M  V30 10688 1 1199 1271
M  V30 10689 1 1199 1285
M  V30 10690 1 1199 1287
M  V30 10691 1 1199 1289
M  V30 10692 1 1199 1300
M  V30 10693 1 1200 1202
M  V30 10694 1 1200 1242
M  V30 10695 1 1200 1243
M  V30 10696 1 1200 1244
M  V30 10697 1 1200 1250
M  V30 10698 1 1200 1251
M  V30 10699 1 1200 1301
M  V30 10700 1 1201 1212
M  V30 10701 1 1201 1213
M  V30 10702 1 1201 1252
M  V30 10703 1 1201 1253
M  V30 10704 1 1201 1269
M  V30 10705 1 1201 1271
M  V30 10706 1 1201 1287
M  V30 10707 1 1201 1289
M  V30 10708 1 1202 1204
M  V30 10709 1 1202 1242
M  V30 10710 1 1202 1243
M  V30 10711 1 1202 1244
M  V30 10712 1 1202 1245
M  V30 10713 1 1202 1251
M  V30 10714 1 1202 1302
M  V30 10715 1 1203 1205
M  V30 10716 1 1203 1215
M  V30 10717 1 1203 1255
M  V30 10718 1 1203 1257
M  V30 10719 1 1203 1273
M  V30 10720 1 1203 1275
M  V30 10721 1 1203 1291
M  V30 10722 1 1203 1293
M  V30 10723 1 1204 1242
M  V30 10724 1 1204 1244
M  V30 10725 1 1204 1245
M  V30 10726 1 1204 1302
M  V30 10727 1 1205 1206
M  V30 10728 1 1205 1215
M  V30 10729 1 1205 1217
M  V30 10730 1 1205 1255
M  V30 10731 1 1205 1257
M  V30 10732 1 1205 1259
M  V30 10733 1 1205 1273
M  V30 10734 1 1205 1275
M  V30 10735 1 1205 1277
M  V30 10736 1 1205 1291
M  V30 10737 1 1205 1293
M  V30 10738 1 1205 1295
M  V30 10739 1 1206 1208
M  V30 10740 1 1206 1217
M  V30 10741 1 1206 1218
M  V30 10742 1 1206 1257
M  V30 10743 1 1206 1259
M  V30 10744 1 1206 1261
M  V30 10745 1 1206 1275
M  V30 10746 1 1206 1277
M  V30 10747 1 1206 1279
M  V30 10748 1 1206 1293
M  V30 10749 1 1206 1295
M  V30 10750 1 1206 1297
M  V30 10751 1 1207 1303
M  V30 10752 1 1207 1304
M  V30 10753 1 1207 1315
M  V30 10754 1 1207 1316
M  V30 10755 1 1208 1209
M  V30 10756 1 1208 1217
M  V30 10757 1 1208 1218
M  V30 10758 1 1208 1219
M  V30 10759 1 1208 1259
M  V30 10760 1 1208 1261
M  V30 10761 1 1208 1263
M  V30 10762 1 1208 1277
M  V30 10763 1 1208 1279
M  V30 10764 1 1208 1281
M  V30 10765 1 1208 1295
M  V30 10766 1 1208 1297
M  V30 10767 1 1208 1299
M  V30 10768 1 1209 1210
M  V30 10769 1 1209 1218
M  V30 10770 1 1209 1219
M  V30 10771 1 1209 1220
M  V30 10772 1 1209 1261
M  V30 10773 1 1209 1263
M  V30 10774 1 1209 1265
M  V30 10775 1 1209 1279
M  V30 10776 1 1209 1281
M  V30 10777 1 1209 1283
M  V30 10778 1 1209 1297
M  V30 10779 1 1209 1299
M  V30 10780 1 1209 1301
M  V30 10781 1 1210 1211
M  V30 10782 1 1210 1219
M  V30 10783 1 1210 1220
M  V30 10784 1 1210 1221
M  V30 10785 1 1210 1243
M  V30 10786 1 1210 1263
M  V30 10787 1 1210 1265
M  V30 10788 1 1210 1267
M  V30 10789 1 1210 1281
M  V30 10790 1 1210 1283
M  V30 10791 1 1210 1285
M  V30 10792 1 1210 1299
M  V30 10793 1 1210 1301
M  V30 10794 1 1211 1212
M  V30 10795 1 1211 1220
M  V30 10796 1 1211 1221
M  V30 10797 1 1211 1222
M  V30 10798 1 1211 1243
M  V30 10799 1 1211 1244
M  V30 10800 1 1211 1265
M  V30 10801 1 1211 1267
M  V30 10802 1 1211 1269
M  V30 10803 1 1211 1283
M  V30 10804 1 1211 1285
M  V30 10805 1 1211 1287
M  V30 10806 1 1211 1301
M  V30 10807 1 1212 1213
M  V30 10808 1 1212 1221
M  V30 10809 1 1212 1222
M  V30 10810 1 1212 1223
M  V30 10811 1 1212 1243
M  V30 10812 1 1212 1244
M  V30 10813 1 1212 1245
M  V30 10814 1 1212 1267
M  V30 10815 1 1212 1269
M  V30 10816 1 1212 1271
M  V30 10817 1 1212 1285
M  V30 10818 1 1212 1287
M  V30 10819 1 1212 1289
M  V30 10820 1 1213 1222
M  V30 10821 1 1213 1223
M  V30 10822 1 1213 1244
M  V30 10823 1 1213 1245
M  V30 10824 1 1213 1269
M  V30 10825 1 1213 1271
M  V30 10826 1 1213 1287
M  V30 10827 1 1213 1289
M  V30 10828 1 1189 1214
M  V30 10829 1 1214 1216
M  V30 10830 1 1214 1312
M  V30 10831 1 1214 1313
M  V30 10832 1 1214 1314
M  V30 10833 1 1214 1319
M  V30 10834 1 1214 1320
M  V30 10835 1 1215 1246
M  V30 10836 1 1215 1273
M  V30 10837 1 1215 1275
M  V30 10838 1 1215 1291
M  V30 10839 1 1215 1293
M  V30 10840 1 1189 1216
M  V30 10841 1 1216 1313
M  V30 10842 1 1216 1314
M  V30 10843 1 1216 1319
M  V30 10844 1 1216 1320
M  V30 10845 1 1194 1217
M  V30 10846 1 1217 1218
M  V30 10847 1 1217 1247
M  V30 10848 1 1217 1248
M  V30 10849 1 1217 1275
M  V30 10850 1 1217 1277
M  V30 10851 1 1217 1279
M  V30 10852 1 1217 1293
M  V30 10853 1 1217 1295
M  V30 10854 1 1217 1297
M  V30 10855 1 1194 1218
M  V30 10856 1 1196 1218
M  V30 10857 1 1218 1219
M  V30 10858 1 1218 1247
M  V30 10859 1 1218 1248
M  V30 10860 1 1218 1249
M  V30 10861 1 1218 1277
M  V30 10862 1 1218 1279
M  V30 10863 1 1218 1281
M  V30 10864 1 1218 1295
M  V30 10865 1 1218 1297
M  V30 10866 1 1218 1299
M  V30 10867 1 1194 1219
M  V30 10868 1 1196 1219
M  V30 10869 1 1198 1219
M  V30 10870 1 1219 1220
M  V30 10871 1 1219 1248
M  V30 10872 1 1219 1249
M  V30 10873 1 1219 1250
M  V30 10874 1 1219 1279
M  V30 10875 1 1219 1281
M  V30 10876 1 1219 1283
M  V30 10877 1 1219 1297
M  V30 10878 1 1219 1299
M  V30 10879 1 1219 1301
M  V30 10880 1 1196 1220
M  V30 10881 1 1198 1220
M  V30 10882 1 1200 1220
M  V30 10883 1 1220 1221
M  V30 10884 1 1220 1243
M  V30 10885 1 1220 1249
M  V30 10886 1 1220 1250
M  V30 10887 1 1220 1251
M  V30 10888 1 1220 1281
M  V30 10889 1 1220 1283
M  V30 10890 1 1220 1285
M  V30 10891 1 1220 1299
M  V30 10892 1 1220 1301
M  V30 10893 1 1198 1221
M  V30 10894 1 1200 1221
M  V30 10895 1 1202 1221
M  V30 10896 1 1221 1222
M  V30 10897 1 1221 1242
M  V30 10898 1 1221 1243
M  V30 10899 1 1221 1244
M  V30 10900 1 1221 1250
M  V30 10901 1 1221 1251
M  V30 10902 1 1221 1283
M  V30 10903 1 1221 1285
M  V30 10904 1 1221 1287
M  V30 10905 1 1221 1301
M  V30 10906 1 1200 1222
M  V30 10907 1 1202 1222
M  V30 10908 1 1204 1222
M  V30 10909 1 1222 1223
M  V30 10910 1 1222 1242
M  V30 10911 1 1222 1243
M  V30 10912 1 1222 1244
M  V30 10913 1 1222 1245
M  V30 10914 1 1222 1251
M  V30 10915 1 1222 1285
M  V30 10916 1 1222 1287
M  V30 10917 1 1222 1289
M  V30 10918 1 1222 1302
M  V30 10919 1 1202 1223
M  V30 10920 1 1204 1223
M  V30 10921 1 1223 1242
M  V30 10922 1 1223 1244
M  V30 10923 1 1223 1245
M  V30 10924 1 1223 1287
M  V30 10925 1 1223 1289
M  V30 10926 1 1223 1302
M  V30 10927 1 1224 1228
M  V30 10928 1 1224 1309
M  V30 10929 1 1224 1311
M  V30 10930 1 1224 1318
M  V30 10931 1 1226 1229
M  V30 10932 1 1226 1321
M  V30 10933 1 1227 1228
M  V30 10934 1 1227 1230
M  V30 10935 1 1227 1308
M  V30 10936 1 1227 1309
M  V30 10937 1 1227 1317
M  V30 10938 1 1227 1318
M  V30 10939 1 1227 1321
M  V30 10940 1 1227 1322
M  V30 10941 1 1228 1230
M  V30 10942 1 1228 1308
M  V30 10943 1 1228 1309
M  V30 10944 1 1228 1311
M  V30 10945 1 1228 1317
M  V30 10946 1 1228 1318
M  V30 10947 1 1228 1322
M  V30 10948 1 1229 1305
M  V30 10949 1 1229 1321
M  V30 10950 1 1230 1305
M  V30 10951 1 1230 1306
M  V30 10952 1 1230 1317
M  V30 10953 1 1230 1318
M  V30 10954 1 1230 1321
M  V30 10955 1 1230 1322
M  V30 10956 1 1231 1266
M  V30 10957 1 1231 1268
M  V30 10958 1 1231 1325
M  V30 10959 1 1231 1326
M  V30 10960 1 1231 1334
M  V30 10961 1 1231 1335
M  V30 10962 1 1231 1344
M  V30 10963 1 1231 1345
M  V30 10964 1 1231 1232
M  V30 10965 1 1232 1233
M  V30 10966 1 1232 1237
M  V30 10967 1 1232 1238
M  V30 10968 1 1232 1324
M  V30 10969 1 1232 1325
M  V30 10970 1 1232 1326
M  V30 10971 1 1232 1330
M  V30 10972 1 1232 1333
M  V30 10973 1 1232 1342
M  V30 10974 1 1232 1344
M  V30 10975 1 1232 1345
M  V30 10976 1 1231 1233
M  V30 10977 1 1233 1238
M  V30 10978 1 1233 1325
M  V30 10979 1 1233 1326
M  V30 10980 1 1233 1333
M  V30 10981 1 1233 1344
M  V30 10982 1 1233 1345
M  V30 10983 1 1234 1235
M  V30 10984 1 1234 1256
M  V30 10985 1 1234 1258
M  V30 10986 1 1234 1260
M  V30 10987 1 1234 1328
M  V30 10988 1 1234 1329
M  V30 10989 1 1234 1346
M  V30 10990 1 1234 1347
M  V30 10991 1 1235 1236
M  V30 10992 1 1235 1258
M  V30 10993 1 1235 1260
M  V30 10994 1 1235 1262
M  V30 10995 1 1235 1323
M  V30 10996 1 1235 1328
M  V30 10997 1 1235 1329
M  V30 10998 1 1235 1331
M  V30 10999 1 1235 1340
M  V30 11000 1 1235 1346
M  V30 11001 1 1235 1347
M  V30 11002 1 1236 1237
M  V30 11003 1 1236 1260
M  V30 11004 1 1236 1262
M  V30 11005 1 1236 1264
M  V30 11006 1 1236 1323
M  V30 11007 1 1236 1324
M  V30 11008 1 1236 1329
M  V30 11009 1 1236 1331
M  V30 11010 1 1236 1332
M  V30 11011 1 1236 1340
M  V30 11012 1 1236 1342
M  V30 11013 1 1236 1347
M  V30 11014 1 1237 1238
M  V30 11015 1 1237 1262
M  V30 11016 1 1237 1264
M  V30 11017 1 1237 1266
M  V30 11018 1 1237 1323
M  V30 11019 1 1237 1324
M  V30 11020 1 1237 1325
M  V30 11021 1 1237 1331
M  V30 11022 1 1237 1332
M  V30 11023 1 1237 1334
M  V30 11024 1 1237 1340
M  V30 11025 1 1237 1342
M  V30 11026 1 1237 1344
M  V30 11027 1 1231 1238
M  V30 11028 1 1238 1264
M  V30 11029 1 1238 1266
M  V30 11030 1 1238 1268
M  V30 11031 1 1238 1324
M  V30 11032 1 1238 1325
M  V30 11033 1 1238 1326
M  V30 11034 1 1238 1332
M  V30 11035 1 1238 1334
M  V30 11036 1 1238 1335
M  V30 11037 1 1238 1342
M  V30 11038 1 1238 1344
M  V30 11039 1 1238 1345
M  V30 11040 1 1232 1239
M  V30 11041 1 1233 1239
M  V30 11042 1 1239 1333
M  V30 11043 1 1239 1344
M  V30 11044 1 1239 1345
M  V30 11045 1 1234 1240
M  V30 11046 1 1235 1240
M  V30 11047 1 1240 1346
M  V30 11048 1 1240 1347
M  V30 11049 1 1232 1241
M  V30 11050 1 1236 1241
M  V30 11051 1 1237 1241
M  V30 11052 1 1238 1241
M  V30 11053 1 1241 1323
M  V30 11054 1 1241 1324
M  V30 11055 1 1241 1325
M  V30 11056 1 1241 1330
M  V30 11057 1 1241 1340
M  V30 11058 1 1241 1342
M  V30 11059 1 1241 1344
M  V30 11060 1 1242 1302
M  V30 11061 1 1242 1375
M  V30 11062 1 1242 1377
M  V30 11063 1 1242 1405
M  V30 11064 1 1242 1407
M  V30 11065 1 1242 1243
M  V30 11066 1 1243 1244
M  V30 11067 1 1243 1250
M  V30 11068 1 1243 1251
M  V30 11069 1 1243 1373
M  V30 11070 1 1243 1375
M  V30 11071 1 1243 1377
M  V30 11072 1 1243 1387
M  V30 11073 1 1243 1389
M  V30 11074 1 1243 1391
M  V30 11075 1 1243 1403
M  V30 11076 1 1243 1405
M  V30 11077 1 1243 1407
M  V30 11078 1 1242 1244
M  V30 11079 1 1244 1245
M  V30 11080 1 1244 1251
M  V30 11081 1 1244 1302
M  V30 11082 1 1244 1375
M  V30 11083 1 1244 1377
M  V30 11084 1 1244 1389
M  V30 11085 1 1244 1391
M  V30 11086 1 1244 1393
M  V30 11087 1 1244 1405
M  V30 11088 1 1244 1407
M  V30 11089 1 1242 1245
M  V30 11090 1 1245 1302
M  V30 11091 1 1245 1377
M  V30 11092 1 1245 1391
M  V30 11093 1 1245 1393
M  V30 11094 1 1245 1407
M  V30 11095 1 1246 1395
M  V30 11096 1 1246 1397
M  V30 11097 1 1246 1410
M  V30 11098 1 1246 1412
M  V30 11099 1 1247 1248
M  V30 11100 1 1247 1397
M  V30 11101 1 1247 1398
M  V30 11102 1 1247 1400
M  V30 11103 1 1247 1412
M  V30 11104 1 1247 1413
M  V30 11105 1 1247 1414
M  V30 11106 1 1248 1249
M  V30 11107 1 1248 1371
M  V30 11108 1 1248 1398
M  V30 11109 1 1248 1400
M  V30 11110 1 1248 1402
M  V30 11111 1 1248 1413
M  V30 11112 1 1248 1414
M  V30 11113 1 1249 1250
M  V30 11114 1 1249 1371
M  V30 11115 1 1249 1373
M  V30 11116 1 1249 1400
M  V30 11117 1 1249 1402
M  V30 11118 1 1249 1403
M  V30 11119 1 1249 1414
M  V30 11120 1 1250 1251
M  V30 11121 1 1250 1371
M  V30 11122 1 1250 1373
M  V30 11123 1 1250 1375
M  V30 11124 1 1250 1402
M  V30 11125 1 1250 1403
M  V30 11126 1 1250 1405
M  V30 11127 1 1242 1251
M  V30 11128 1 1251 1373
M  V30 11129 1 1251 1375
M  V30 11130 1 1251 1377
M  V30 11131 1 1251 1403
M  V30 11132 1 1251 1405
M  V30 11133 1 1251 1407
M  V30 11134 1 1252 1253
M  V30 11135 1 1252 1267
M  V30 11136 1 1252 1269
M  V30 11137 1 1252 1271
M  V30 11138 1 1252 1351
M  V30 11139 1 1252 1352
M  V30 11140 1 1252 1353
M  V30 11141 1 1252 1357
M  V30 11142 1 1252 1358
M  V30 11143 1 1252 1359
M  V30 11144 1 1252 1372
M  V30 11145 1 1252 1374
M  V30 11146 1 1252 1376
M  V30 11147 1 1253 1269
M  V30 11148 1 1253 1271
M  V30 11149 1 1253 1352
M  V30 11150 1 1253 1353
M  V30 11151 1 1253 1358
M  V30 11152 1 1253 1359
M  V30 11153 1 1253 1374
M  V30 11154 1 1253 1376
M  V30 11155 1 1254 1256
M  V30 11156 1 1254 1270
M  V30 11157 1 1254 1272
M  V30 11158 1 1254 1274
M  V30 11159 1 1254 1336
M  V30 11160 1 1254 1337
M  V30 11161 1 1254 1338
M  V30 11162 1 1255 1257
M  V30 11163 1 1255 1273
M  V30 11164 1 1255 1275
M  V30 11165 1 1255 1354
M  V30 11166 1 1255 1360
M  V30 11167 1 1255 1361
M  V30 11168 1 1255 1378
M  V30 11169 1 1255 1379
M  V30 11170 1 1256 1258
M  V30 11171 1 1256 1272
M  V30 11172 1 1256 1274
M  V30 11173 1 1256 1276
M  V30 11174 1 1256 1328
M  V30 11175 1 1256 1337
M  V30 11176 1 1256 1338
M  V30 11177 1 1256 1339
M  V30 11178 1 1256 1346
M  V30 11179 1 1257 1259
M  V30 11180 1 1257 1273
M  V30 11181 1 1257 1275
M  V30 11182 1 1257 1277
M  V30 11183 1 1257 1354
M  V30 11184 1 1257 1360
M  V30 11185 1 1257 1361
M  V30 11186 1 1257 1362
M  V30 11187 1 1257 1378
M  V30 11188 1 1257 1379
M  V30 11189 1 1257 1381
M  V30 11190 1 1258 1260
M  V30 11191 1 1258 1274
M  V30 11192 1 1258 1276
M  V30 11193 1 1258 1278
M  V30 11194 1 1258 1328
M  V30 11195 1 1258 1329
M  V30 11196 1 1258 1338
M  V30 11197 1 1258 1339
M  V30 11198 1 1258 1341
M  V30 11199 1 1258 1346
M  V30 11200 1 1258 1347
M  V30 11201 1 1259 1261
M  V30 11202 1 1259 1275
M  V30 11203 1 1259 1277
M  V30 11204 1 1259 1279
M  V30 11205 1 1259 1355
M  V30 11206 1 1259 1361
M  V30 11207 1 1259 1362
M  V30 11208 1 1259 1363
M  V30 11209 1 1259 1379
M  V30 11210 1 1259 1381
M  V30 11211 1 1259 1383
M  V30 11212 1 1260 1262
M  V30 11213 1 1260 1276
M  V30 11214 1 1260 1278
M  V30 11215 1 1260 1280
M  V30 11216 1 1260 1323
M  V30 11217 1 1260 1328
M  V30 11218 1 1260 1329
M  V30 11219 1 1260 1331
M  V30 11220 1 1260 1339
M  V30 11221 1 1260 1341
M  V30 11222 1 1260 1343
M  V30 11223 1 1260 1346
M  V30 11224 1 1260 1347
M  V30 11225 1 1261 1263
M  V30 11226 1 1261 1277
M  V30 11227 1 1261 1279
M  V30 11228 1 1261 1281
M  V30 11229 1 1261 1349
M  V30 11230 1 1261 1355
M  V30 11231 1 1261 1356
M  V30 11232 1 1261 1362
M  V30 11233 1 1261 1363
M  V30 11234 1 1261 1381
M  V30 11235 1 1261 1383
M  V30 11236 1 1261 1385
M  V30 11237 1 1262 1264
M  V30 11238 1 1262 1278
M  V30 11239 1 1262 1280
M  V30 11240 1 1262 1282
M  V30 11241 1 1262 1323
M  V30 11242 1 1262 1324
M  V30 11243 1 1262 1329
M  V30 11244 1 1262 1331
M  V30 11245 1 1262 1332
M  V30 11246 1 1262 1341
M  V30 11247 1 1262 1343
M  V30 11248 1 1262 1347
M  V30 11249 1 1262 1357
M  V30 11250 1 1263 1265
M  V30 11251 1 1263 1279
M  V30 11252 1 1263 1281
M  V30 11253 1 1263 1283
M  V30 11254 1 1263 1348
M  V30 11255 1 1263 1349
M  V30 11256 1 1263 1350
M  V30 11257 1 1263 1355
M  V30 11258 1 1263 1356
M  V30 11259 1 1263 1363
M  V30 11260 1 1263 1383
M  V30 11261 1 1263 1385
M  V30 11262 1 1263 1387
M  V30 11263 1 1264 1266
M  V30 11264 1 1264 1280
M  V30 11265 1 1264 1282
M  V30 11266 1 1264 1284
M  V30 11267 1 1264 1323
M  V30 11268 1 1264 1324
M  V30 11269 1 1264 1325
M  V30 11270 1 1264 1331
M  V30 11271 1 1264 1332
M  V30 11272 1 1264 1334
M  V30 11273 1 1264 1343
M  V30 11274 1 1264 1357
M  V30 11275 1 1264 1358
M  V30 11276 1 1265 1267
M  V30 11277 1 1265 1281
M  V30 11278 1 1265 1283
M  V30 11279 1 1265 1285
M  V30 11280 1 1265 1348
M  V30 11281 1 1265 1349
M  V30 11282 1 1265 1350
M  V30 11283 1 1265 1351
M  V30 11284 1 1265 1356
M  V30 11285 1 1265 1372
M  V30 11286 1 1265 1385
M  V30 11287 1 1265 1387
M  V30 11288 1 1265 1389
M  V30 11289 1 1266 1268
M  V30 11290 1 1266 1282
M  V30 11291 1 1266 1284
M  V30 11292 1 1266 1286
M  V30 11293 1 1266 1324
M  V30 11294 1 1266 1325
M  V30 11295 1 1266 1326
M  V30 11296 1 1266 1332
M  V30 11297 1 1266 1334
M  V30 11298 1 1266 1335
M  V30 11299 1 1266 1357
M  V30 11300 1 1266 1358
M  V30 11301 1 1266 1359
M  V30 11302 1 1267 1269
M  V30 11303 1 1267 1283
M  V30 11304 1 1267 1285
M  V30 11305 1 1267 1287
M  V30 11306 1 1267 1348
M  V30 11307 1 1267 1350
M  V30 11308 1 1267 1351
M  V30 11309 1 1267 1352
M  V30 11310 1 1267 1372
M  V30 11311 1 1267 1374
M  V30 11312 1 1267 1387
M  V30 11313 1 1267 1389
M  V30 11314 1 1267 1391
M  V30 11315 1 1268 1284
M  V30 11316 1 1268 1286
M  V30 11317 1 1268 1325
M  V30 11318 1 1268 1326
M  V30 11319 1 1268 1334
M  V30 11320 1 1268 1335
M  V30 11321 1 1268 1358
M  V30 11322 1 1268 1359
M  V30 11323 1 1269 1271
M  V30 11324 1 1269 1285
M  V30 11325 1 1269 1287
M  V30 11326 1 1269 1289
M  V30 11327 1 1269 1351
M  V30 11328 1 1269 1352
M  V30 11329 1 1269 1353
M  V30 11330 1 1269 1372
M  V30 11331 1 1269 1374
M  V30 11332 1 1269 1376
M  V30 11333 1 1269 1389
M  V30 11334 1 1269 1391
M  V30 11335 1 1269 1393
M  V30 11336 1 1270 1272
M  V30 11337 1 1270 1288
M  V30 11338 1 1270 1290
M  V30 11339 1 1270 1336
M  V30 11340 1 1270 1337
M  V30 11341 1 1270 1360
M  V30 11342 1 1270 1361
M  V30 11343 1 1271 1287
M  V30 11344 1 1271 1289
M  V30 11345 1 1271 1352
M  V30 11346 1 1271 1353
M  V30 11347 1 1271 1374
M  V30 11348 1 1271 1376
M  V30 11349 1 1271 1391
M  V30 11350 1 1271 1393
M  V30 11351 1 1272 1274
M  V30 11352 1 1272 1288
M  V30 11353 1 1272 1290
M  V30 11354 1 1272 1292
M  V30 11355 1 1272 1336
M  V30 11356 1 1272 1337
M  V30 11357 1 1272 1338
M  V30 11358 1 1272 1360
M  V30 11359 1 1272 1361
M  V30 11360 1 1272 1362
M  V30 11361 1 1273 1275
M  V30 11362 1 1273 1291
M  V30 11363 1 1273 1293
M  V30 11364 1 1273 1354
M  V30 11365 1 1273 1378
M  V30 11366 1 1273 1379
M  V30 11367 1 1273 1395
M  V30 11368 1 1273 1397
M  V30 11369 1 1274 1276
M  V30 11370 1 1274 1290
M  V30 11371 1 1274 1292
M  V30 11372 1 1274 1294
M  V30 11373 1 1274 1328
M  V30 11374 1 1274 1337
M  V30 11375 1 1274 1338
M  V30 11376 1 1274 1339
M  V30 11377 1 1274 1361
M  V30 11378 1 1274 1362
M  V30 11379 1 1274 1363
M  V30 11380 1 1275 1277
M  V30 11381 1 1275 1291
M  V30 11382 1 1275 1293
M  V30 11383 1 1275 1295
M  V30 11384 1 1275 1354
M  V30 11385 1 1275 1378
M  V30 11386 1 1275 1379
M  V30 11387 1 1275 1381
M  V30 11388 1 1275 1395
M  V30 11389 1 1275 1397
M  V30 11390 1 1275 1398
M  V30 11391 1 1276 1278
M  V30 11392 1 1276 1292
M  V30 11393 1 1276 1294
M  V30 11394 1 1276 1296
M  V30 11395 1 1276 1328
M  V30 11396 1 1276 1329
M  V30 11397 1 1276 1338
M  V30 11398 1 1276 1339
M  V30 11399 1 1276 1341
M  V30 11400 1 1276 1349
M  V30 11401 1 1276 1362
M  V30 11402 1 1276 1363
M  V30 11403 1 1277 1279
M  V30 11404 1 1277 1293
M  V30 11405 1 1277 1295
M  V30 11406 1 1277 1297
M  V30 11407 1 1277 1355
M  V30 11408 1 1277 1379
M  V30 11409 1 1277 1381
M  V30 11410 1 1277 1383
M  V30 11411 1 1277 1397
M  V30 11412 1 1277 1398
M  V30 11413 1 1277 1400
M  V30 11414 1 1278 1280
M  V30 11415 1 1278 1294
M  V30 11416 1 1278 1296
M  V30 11417 1 1278 1298
M  V30 11418 1 1278 1328
M  V30 11419 1 1278 1329
M  V30 11420 1 1278 1331
M  V30 11421 1 1278 1339
M  V30 11422 1 1278 1341
M  V30 11423 1 1278 1343
M  V30 11424 1 1278 1349
M  V30 11425 1 1278 1350
M  V30 11426 1 1278 1363
M  V30 11427 1 1279 1281
M  V30 11428 1 1279 1295
M  V30 11429 1 1279 1297
M  V30 11430 1 1279 1299
M  V30 11431 1 1279 1355
M  V30 11432 1 1279 1356
M  V30 11433 1 1279 1381
M  V30 11434 1 1279 1383
M  V30 11435 1 1279 1385
M  V30 11436 1 1279 1398
M  V30 11437 1 1279 1400
M  V30 11438 1 1279 1402
M  V30 11439 1 1280 1282
M  V30 11440 1 1280 1296
M  V30 11441 1 1280 1298
M  V30 11442 1 1280 1300
M  V30 11443 1 1280 1329
M  V30 11444 1 1280 1331
M  V30 11445 1 1280 1332
M  V30 11446 1 1280 1341
M  V30 11447 1 1280 1343
M  V30 11448 1 1280 1349
M  V30 11449 1 1280 1350
M  V30 11450 1 1280 1351
M  V30 11451 1 1280 1357
M  V30 11452 1 1281 1283
M  V30 11453 1 1281 1297
M  V30 11454 1 1281 1299
M  V30 11455 1 1281 1301
M  V30 11456 1 1281 1348
M  V30 11457 1 1281 1355
M  V30 11458 1 1281 1356
M  V30 11459 1 1281 1383
M  V30 11460 1 1281 1385
M  V30 11461 1 1281 1387
M  V30 11462 1 1281 1400
M  V30 11463 1 1281 1402
M  V30 11464 1 1281 1403
M  V30 11465 1 1252 1282
M  V30 11466 1 1282 1284
M  V30 11467 1 1282 1298
M  V30 11468 1 1282 1300
M  V30 11469 1 1282 1331
M  V30 11470 1 1282 1332
M  V30 11471 1 1282 1334
M  V30 11472 1 1282 1343
M  V30 11473 1 1282 1350
M  V30 11474 1 1282 1351
M  V30 11475 1 1282 1352
M  V30 11476 1 1282 1357
M  V30 11477 1 1282 1358
M  V30 11478 1 1243 1283
M  V30 11479 1 1283 1285
M  V30 11480 1 1283 1299
M  V30 11481 1 1283 1301
M  V30 11482 1 1283 1348
M  V30 11483 1 1283 1356
M  V30 11484 1 1283 1372
M  V30 11485 1 1283 1385
M  V30 11486 1 1283 1387
M  V30 11487 1 1283 1389
M  V30 11488 1 1283 1402
M  V30 11489 1 1283 1403
M  V30 11490 1 1283 1405
M  V30 11491 1 1252 1284
M  V30 11492 1 1253 1284
M  V30 11493 1 1284 1286
M  V30 11494 1 1284 1300
M  V30 11495 1 1284 1332
M  V30 11496 1 1284 1334
M  V30 11497 1 1284 1335
M  V30 11498 1 1284 1351
M  V30 11499 1 1284 1352
M  V30 11500 1 1284 1353
M  V30 11501 1 1284 1357
M  V30 11502 1 1284 1358
M  V30 11503 1 1284 1359
M  V30 11504 1 1243 1285
M  V30 11505 1 1244 1285
M  V30 11506 1 1285 1287
M  V30 11507 1 1285 1301
M  V30 11508 1 1285 1348
M  V30 11509 1 1285 1372
M  V30 11510 1 1285 1374
M  V30 11511 1 1285 1387
M  V30 11512 1 1285 1389
M  V30 11513 1 1285 1391
M  V30 11514 1 1285 1403
M  V30 11515 1 1285 1405
M  V30 11516 1 1285 1407
M  V30 11517 1 1252 1286
M  V30 11518 1 1253 1286
M  V30 11519 1 1286 1334
M  V30 11520 1 1286 1335
M  V30 11521 1 1286 1352
M  V30 11522 1 1286 1353
M  V30 11523 1 1286 1358
M  V30 11524 1 1286 1359
M  V30 11525 1 1243 1287
M  V30 11526 1 1244 1287
M  V30 11527 1 1245 1287
M  V30 11528 1 1287 1289
M  V30 11529 1 1287 1372
M  V30 11530 1 1287 1374
M  V30 11531 1 1287 1376
M  V30 11532 1 1287 1389
M  V30 11533 1 1287 1391
M  V30 11534 1 1287 1393
M  V30 11535 1 1287 1405
M  V30 11536 1 1287 1407
M  V30 11537 1 1255 1288
M  V30 11538 1 1257 1288
M  V30 11539 1 1288 1290
M  V30 11540 1 1288 1336
M  V30 11541 1 1288 1337
M  V30 11542 1 1288 1354
M  V30 11543 1 1288 1360
M  V30 11544 1 1288 1361
M  V30 11545 1 1244 1289
M  V30 11546 1 1245 1289
M  V30 11547 1 1289 1374
M  V30 11548 1 1289 1376
M  V30 11549 1 1289 1391
M  V30 11550 1 1289 1393
M  V30 11551 1 1289 1407
M  V30 11552 1 1255 1290
M  V30 11553 1 1257 1290
M  V30 11554 1 1259 1290
M  V30 11555 1 1290 1292
M  V30 11556 1 1290 1336
M  V30 11557 1 1290 1337
M  V30 11558 1 1290 1338
M  V30 11559 1 1290 1354
M  V30 11560 1 1290 1360
M  V30 11561 1 1290 1361
M  V30 11562 1 1290 1362
M  V30 11563 1 1246 1291
M  V30 11564 1 1291 1293
M  V30 11565 1 1291 1378
M  V30 11566 1 1291 1379
M  V30 11567 1 1291 1395
M  V30 11568 1 1291 1397
M  V30 11569 1 1291 1410
M  V30 11570 1 1291 1412
M  V30 11571 1 1257 1292
M  V30 11572 1 1259 1292
M  V30 11573 1 1261 1292
M  V30 11574 1 1292 1294
M  V30 11575 1 1292 1337
M  V30 11576 1 1292 1338
M  V30 11577 1 1292 1339
M  V30 11578 1 1292 1355
M  V30 11579 1 1292 1361
M  V30 11580 1 1292 1362
M  V30 11581 1 1292 1363
M  V30 11582 1 1246 1293
M  V30 11583 1 1247 1293
M  V30 11584 1 1293 1295
M  V30 11585 1 1293 1378
M  V30 11586 1 1293 1379
M  V30 11587 1 1293 1381
M  V30 11588 1 1293 1395
M  V30 11589 1 1293 1397
M  V30 11590 1 1293 1398
M  V30 11591 1 1293 1410
M  V30 11592 1 1293 1412
M  V30 11593 1 1293 1413
M  V30 11594 1 1259 1294
M  V30 11595 1 1261 1294
M  V30 11596 1 1263 1294
M  V30 11597 1 1294 1296
M  V30 11598 1 1294 1338
M  V30 11599 1 1294 1339
M  V30 11600 1 1294 1341
M  V30 11601 1 1294 1349
M  V30 11602 1 1294 1355
M  V30 11603 1 1294 1356
M  V30 11604 1 1294 1362
M  V30 11605 1 1294 1363
M  V30 11606 1 1247 1295
M  V30 11607 1 1248 1295
M  V30 11608 1 1295 1297
M  V30 11609 1 1295 1379
M  V30 11610 1 1295 1381
M  V30 11611 1 1295 1383
M  V30 11612 1 1295 1397
M  V30 11613 1 1295 1398
M  V30 11614 1 1295 1400
M  V30 11615 1 1295 1412
M  V30 11616 1 1295 1413
M  V30 11617 1 1295 1414
M  V30 11618 1 1261 1296
M  V30 11619 1 1263 1296
M  V30 11620 1 1265 1296
M  V30 11621 1 1296 1298
M  V30 11622 1 1296 1339
M  V30 11623 1 1296 1341
M  V30 11624 1 1296 1343
M  V30 11625 1 1296 1348
M  V30 11626 1 1296 1349
M  V30 11627 1 1296 1350
M  V30 11628 1 1296 1355
M  V30 11629 1 1296 1356
M  V30 11630 1 1296 1363
M  V30 11631 1 1247 1297
M  V30 11632 1 1248 1297
M  V30 11633 1 1249 1297
M  V30 11634 1 1297 1299
M  V30 11635 1 1297 1371
M  V30 11636 1 1297 1381
M  V30 11637 1 1297 1383
M  V30 11638 1 1297 1385
M  V30 11639 1 1297 1398
M  V30 11640 1 1297 1400
M  V30 11641 1 1297 1402
M  V30 11642 1 1297 1413
M  V30 11643 1 1297 1414
M  V30 11644 1 1263 1298
M  V30 11645 1 1265 1298
M  V30 11646 1 1267 1298
M  V30 11647 1 1298 1300
M  V30 11648 1 1298 1341
M  V30 11649 1 1298 1343
M  V30 11650 1 1298 1348
M  V30 11651 1 1298 1349
M  V30 11652 1 1298 1350
M  V30 11653 1 1298 1351
M  V30 11654 1 1298 1356
M  V30 11655 1 1298 1357
M  V30 11656 1 1298 1372
M  V30 11657 1 1248 1299
M  V30 11658 1 1249 1299
M  V30 11659 1 1250 1299
M  V30 11660 1 1299 1301
M  V30 11661 1 1299 1371
M  V30 11662 1 1299 1373
M  V30 11663 1 1299 1383
M  V30 11664 1 1299 1385
M  V30 11665 1 1299 1387
M  V30 11666 1 1299 1400
M  V30 11667 1 1299 1402
M  V30 11668 1 1299 1403
M  V30 11669 1 1299 1414
M  V30 11670 1 1252 1300
M  V30 11671 1 1265 1300
M  V30 11672 1 1267 1300
M  V30 11673 1 1269 1300
M  V30 11674 1 1300 1343
M  V30 11675 1 1300 1348
M  V30 11676 1 1300 1350
M  V30 11677 1 1300 1351
M  V30 11678 1 1300 1352
M  V30 11679 1 1300 1357
M  V30 11680 1 1300 1358
M  V30 11681 1 1300 1372
M  V30 11682 1 1300 1374
M  V30 11683 1 1243 1301
M  V30 11684 1 1249 1301
M  V30 11685 1 1250 1301
M  V30 11686 1 1251 1301
M  V30 11687 1 1301 1371
M  V30 11688 1 1301 1373
M  V30 11689 1 1301 1375
M  V30 11690 1 1301 1385
M  V30 11691 1 1301 1387
M  V30 11692 1 1301 1389
M  V30 11693 1 1301 1402
M  V30 11694 1 1301 1403
M  V30 11695 1 1301 1405
M  V30 11696 1 1302 1377
M  V30 11697 1 1302 1407
M  V30 11698 1 1303 1304
M  V30 11699 1 1303 1315
M  V30 11700 1 1303 1316
M  V30 11701 1 1303 1380
M  V30 11702 1 1303 1382
M  V30 11703 1 1303 1399
M  V30 11704 1 1304 1315
M  V30 11705 1 1304 1316
M  V30 11706 1 1304 1380
M  V30 11707 1 1304 1382
M  V30 11708 1 1304 1384
M  V30 11709 1 1304 1399
M  V30 11710 1 1304 1401
M  V30 11711 1 1305 1306
M  V30 11712 1 1305 1327
M  V30 11713 1 1305 1422
M  V30 11714 1 1305 1429
M  V30 11715 1 1305 1438
M  V30 11716 1 1306 1327
M  V30 11717 1 1306 1422
M  V30 11718 1 1306 1423
M  V30 11719 1 1306 1429
M  V30 11720 1 1306 1430
M  V30 11721 1 1306 1438
M  V30 11722 1 1307 1368
M  V30 11723 1 1307 1369
M  V30 11724 1 1307 1409
M  V30 11725 1 1307 1411
M  V30 11726 1 1307 1418
M  V30 11727 1 1308 1309
M  V30 11728 1 1308 1317
M  V30 11729 1 1308 1318
M  V30 11730 1 1308 1365
M  V30 11731 1 1308 1370
M  V30 11732 1 1308 1415
M  V30 11733 1 1308 1419
M  V30 11734 1 1308 1420
M  V30 11735 1 1309 1311
M  V30 11736 1 1309 1317
M  V30 11737 1 1309 1318
M  V30 11738 1 1309 1364
M  V30 11739 1 1309 1365
M  V30 11740 1 1309 1366
M  V30 11741 1 1309 1370
M  V30 11742 1 1309 1415
M  V30 11743 1 1309 1419
M  V30 11744 1 1309 1420
M  V30 11745 1 1309 1421
M  V30 11746 1 1310 1312
M  V30 11747 1 1310 1388
M  V30 11748 1 1310 1390
M  V30 11749 1 1310 1392
M  V30 11750 1 1310 1404
M  V30 11751 1 1310 1406
M  V30 11752 1 1310 1408
M  V30 11753 1 1311 1318
M  V30 11754 1 1311 1364
M  V30 11755 1 1311 1365
M  V30 11756 1 1311 1366
M  V30 11757 1 1311 1370
M  V30 11758 1 1311 1416
M  V30 11759 1 1311 1420
M  V30 11760 1 1311 1421
M  V30 11761 1 1312 1313
M  V30 11762 1 1312 1319
M  V30 11763 1 1312 1390
M  V30 11764 1 1312 1392
M  V30 11765 1 1312 1394
M  V30 11766 1 1312 1406
M  V30 11767 1 1312 1408
M  V30 11768 1 1312 1409
M  V30 11769 1 1313 1314
M  V30 11770 1 1313 1319
M  V30 11771 1 1313 1320
M  V30 11772 1 1313 1392
M  V30 11773 1 1313 1394
M  V30 11774 1 1313 1396
M  V30 11775 1 1313 1408
M  V30 11776 1 1313 1409
M  V30 11777 1 1313 1411
M  V30 11778 1 1314 1319
M  V30 11779 1 1314 1320
M  V30 11780 1 1314 1394
M  V30 11781 1 1314 1396
M  V30 11782 1 1314 1409
M  V30 11783 1 1314 1411
M  V30 11784 1 1315 1316
M  V30 11785 1 1315 1380
M  V30 11786 1 1315 1382
M  V30 11787 1 1315 1399
M  V30 11788 1 1316 1380
M  V30 11789 1 1316 1382
M  V30 11790 1 1316 1384
M  V30 11791 1 1316 1399
M  V30 11792 1 1316 1401
M  V30 11793 1 1316 1415
M  V30 11794 1 1317 1318
M  V30 11795 1 1317 1321
M  V30 11796 1 1317 1322
M  V30 11797 1 1317 1370
M  V30 11798 1 1317 1419
M  V30 11799 1 1317 1420
M  V30 11800 1 1317 1422
M  V30 11801 1 1317 1423
M  V30 11802 1 1318 1322
M  V30 11803 1 1318 1364
M  V30 11804 1 1318 1370
M  V30 11805 1 1318 1419
M  V30 11806 1 1318 1420
M  V30 11807 1 1318 1421
M  V30 11808 1 1318 1422
M  V30 11809 1 1318 1423
M  V30 11810 1 1307 1319
M  V30 11811 1 1319 1320
M  V30 11812 1 1319 1367
M  V30 11813 1 1319 1368
M  V30 11814 1 1319 1369
M  V30 11815 1 1319 1392
M  V30 11816 1 1319 1394
M  V30 11817 1 1319 1396
M  V30 11818 1 1319 1408
M  V30 11819 1 1319 1409
M  V30 11820 1 1319 1411
M  V30 11821 1 1307 1320
M  V30 11822 1 1320 1368
M  V30 11823 1 1320 1369
M  V30 11824 1 1320 1394
M  V30 11825 1 1320 1396
M  V30 11826 1 1320 1409
M  V30 11827 1 1320 1411
M  V30 11828 1 1305 1321
M  V30 11829 1 1306 1321
M  V30 11830 1 1321 1322
M  V30 11831 1 1321 1419
M  V30 11832 1 1321 1422
M  V30 11833 1 1321 1438
M  V30 11834 1 1305 1322
M  V30 11835 1 1306 1322
M  V30 11836 1 1322 1419
M  V30 11837 1 1322 1420
M  V30 11838 1 1322 1422
M  V30 11839 1 1322 1423
M  V30 11840 1 1322 1438
M  V30 11841 1 1323 1324
M  V30 11842 1 1323 1329
M  V30 11843 1 1323 1331
M  V30 11844 1 1323 1332
M  V30 11845 1 1323 1425
M  V30 11846 1 1323 1426
M  V30 11847 1 1323 1435
M  V30 11848 1 1323 1443
M  V30 11849 1 1323 1445
M  V30 11850 1 1324 1325
M  V30 11851 1 1324 1331
M  V30 11852 1 1324 1332
M  V30 11853 1 1324 1334
M  V30 11854 1 1324 1425
M  V30 11855 1 1324 1426
M  V30 11856 1 1324 1427
M  V30 11857 1 1324 1435
M  V30 11858 1 1324 1436
M  V30 11859 1 1324 1443
M  V30 11860 1 1324 1445
M  V30 11861 1 1324 1447
M  V30 11862 1 1325 1326
M  V30 11863 1 1325 1332
M  V30 11864 1 1325 1334
M  V30 11865 1 1325 1335
M  V30 11866 1 1325 1426
M  V30 11867 1 1325 1427
M  V30 11868 1 1325 1428
M  V30 11869 1 1325 1435
M  V30 11870 1 1325 1436
M  V30 11871 1 1325 1437
M  V30 11872 1 1325 1445
M  V30 11873 1 1325 1447
M  V30 11874 1 1325 1449
M  V30 11875 1 1326 1334
M  V30 11876 1 1326 1335
M  V30 11877 1 1326 1427
M  V30 11878 1 1326 1428
M  V30 11879 1 1326 1436
M  V30 11880 1 1326 1437
M  V30 11881 1 1326 1447
M  V30 11882 1 1326 1449
M  V30 11883 1 1327 1429
M  V30 11884 1 1327 1438
M  V30 11885 1 1328 1329
M  V30 11886 1 1328 1338
M  V30 11887 1 1328 1339
M  V30 11888 1 1328 1341
M  V30 11889 1 1328 1424
M  V30 11890 1 1328 1453
M  V30 11891 1 1328 1454
M  V30 11892 1 1328 1455
M  V30 11893 1 1329 1331
M  V30 11894 1 1329 1339
M  V30 11895 1 1329 1341
M  V30 11896 1 1329 1343
M  V30 11897 1 1329 1424
M  V30 11898 1 1329 1425
M  V30 11899 1 1329 1443
M  V30 11900 1 1329 1454
M  V30 11901 1 1329 1455
M  V30 11902 1 1329 1456
M  V30 11903 1 1330 1340
M  V30 11904 1 1330 1342
M  V30 11905 1 1330 1344
M  V30 11906 1 1330 1431
M  V30 11907 1 1330 1432
M  V30 11908 1 1330 1433
M  V30 11909 1 1330 1435
M  V30 11910 1 1330 1436
M  V30 11911 1 1331 1332
M  V30 11912 1 1331 1341
M  V30 11913 1 1331 1343
M  V30 11914 1 1331 1357
M  V30 11915 1 1331 1425
M  V30 11916 1 1331 1426
M  V30 11917 1 1331 1443
M  V30 11918 1 1331 1445
M  V30 11919 1 1331 1455
M  V30 11920 1 1331 1456
M  V30 11921 1 1331 1458
M  V30 11922 1 1332 1334
M  V30 11923 1 1332 1343
M  V30 11924 1 1332 1357
M  V30 11925 1 1332 1358
M  V30 11926 1 1332 1425
M  V30 11927 1 1332 1426
M  V30 11928 1 1332 1427
M  V30 11929 1 1332 1443
M  V30 11930 1 1332 1445
M  V30 11931 1 1332 1447
M  V30 11932 1 1332 1456
M  V30 11933 1 1332 1458
M  V30 11934 1 1332 1460
M  V30 11935 1 1333 1344
M  V30 11936 1 1333 1345
M  V30 11937 1 1333 1433
M  V30 11938 1 1333 1434
M  V30 11939 1 1333 1436
M  V30 11940 1 1333 1437
M  V30 11941 1 1334 1335
M  V30 11942 1 1334 1357
M  V30 11943 1 1334 1358
M  V30 11944 1 1334 1359
M  V30 11945 1 1334 1426
M  V30 11946 1 1334 1427
M  V30 11947 1 1334 1428
M  V30 11948 1 1334 1445
M  V30 11949 1 1334 1447
M  V30 11950 1 1334 1449
M  V30 11951 1 1334 1458
M  V30 11952 1 1334 1460
M  V30 11953 1 1334 1462
M  V30 11954 1 1335 1358
M  V30 11955 1 1335 1359
M  V30 11956 1 1335 1427
M  V30 11957 1 1335 1428
M  V30 11958 1 1335 1447
M  V30 11959 1 1335 1449
M  V30 11960 1 1335 1460
M  V30 11961 1 1335 1462
M  V30 11962 1 1336 1337
M  V30 11963 1 1336 1360
M  V30 11964 1 1336 1361
M  V30 11965 1 1336 1451
M  V30 11966 1 1337 1338
M  V30 11967 1 1337 1360
M  V30 11968 1 1337 1361
M  V30 11969 1 1337 1362
M  V30 11970 1 1337 1451
M  V30 11971 1 1337 1453
M  V30 11972 1 1338 1339
M  V30 11973 1 1338 1361
M  V30 11974 1 1338 1362
M  V30 11975 1 1338 1363
M  V30 11976 1 1338 1424
M  V30 11977 1 1338 1453
M  V30 11978 1 1338 1454
M  V30 11979 1 1339 1341
M  V30 11980 1 1339 1349
M  V30 11981 1 1339 1362
M  V30 11982 1 1339 1363
M  V30 11983 1 1339 1424
M  V30 11984 1 1339 1453
M  V30 11985 1 1339 1454
M  V30 11986 1 1339 1455
M  V30 11987 1 1339 1465
M  V30 11988 1 1323 1340
M  V30 11989 1 1324 1340
M  V30 11990 1 1340 1342
M  V30 11991 1 1340 1347
M  V30 11992 1 1340 1425
M  V30 11993 1 1340 1426
M  V30 11994 1 1340 1431
M  V30 11995 1 1340 1432
M  V30 11996 1 1340 1435
M  V30 11997 1 1341 1343
M  V30 11998 1 1341 1349
M  V30 11999 1 1341 1350
M  V30 12000 1 1341 1363
M  V30 12001 1 1341 1424
M  V30 12002 1 1341 1443
M  V30 12003 1 1341 1454
M  V30 12004 1 1341 1455
M  V30 12005 1 1341 1456
M  V30 12006 1 1341 1465
M  V30 12007 1 1341 1467
M  V30 12008 1 1323 1342
M  V30 12009 1 1324 1342
M  V30 12010 1 1325 1342
M  V30 12011 1 1342 1344
M  V30 12012 1 1342 1425
M  V30 12013 1 1342 1426
M  V30 12014 1 1342 1427
M  V30 12015 1 1342 1431
M  V30 12016 1 1342 1432
M  V30 12017 1 1342 1433
M  V30 12018 1 1342 1435
M  V30 12019 1 1342 1436
M  V30 12020 1 1343 1349
M  V30 12021 1 1343 1350
M  V30 12022 1 1343 1351
M  V30 12023 1 1343 1357
M  V30 12024 1 1343 1443
M  V30 12025 1 1343 1445
M  V30 12026 1 1343 1455
M  V30 12027 1 1343 1456
M  V30 12028 1 1343 1458
M  V30 12029 1 1343 1465
M  V30 12030 1 1343 1467
M  V30 12031 1 1343 1469
M  V30 12032 1 1324 1344
M  V30 12033 1 1325 1344
M  V30 12034 1 1326 1344
M  V30 12035 1 1344 1345
M  V30 12036 1 1344 1426
M  V30 12037 1 1344 1427
M  V30 12038 1 1344 1428
M  V30 12039 1 1344 1432
M  V30 12040 1 1344 1433
M  V30 12041 1 1344 1434
M  V30 12042 1 1344 1435
M  V30 12043 1 1344 1436
M  V30 12044 1 1344 1437
M  V30 12045 1 1325 1345
M  V30 12046 1 1326 1345
M  V30 12047 1 1345 1427
M  V30 12048 1 1345 1428
M  V30 12049 1 1345 1433
M  V30 12050 1 1345 1434
M  V30 12051 1 1345 1436
M  V30 12052 1 1345 1437
M  V30 12053 1 1328 1346
M  V30 12054 1 1329 1346
M  V30 12055 1 1346 1347
M  V30 12056 1 1346 1424
M  V30 12057 1 1323 1347
M  V30 12058 1 1328 1347
M  V30 12059 1 1329 1347
M  V30 12060 1 1331 1347
M  V30 12061 1 1347 1424
M  V30 12062 1 1347 1425
M  V30 12063 1 1347 1443
M  V30 12064 1 1348 1372
M  V30 12065 1 1348 1385
M  V30 12066 1 1348 1387
M  V30 12067 1 1348 1389
M  V30 12068 1 1348 1444
M  V30 12069 1 1348 1446
M  V30 12070 1 1348 1448
M  V30 12071 1 1348 1457
M  V30 12072 1 1348 1459
M  V30 12073 1 1348 1461
M  V30 12074 1 1348 1465
M  V30 12075 1 1348 1467
M  V30 12076 1 1348 1469
M  V30 12077 1 1348 1349
M  V30 12078 1 1349 1350
M  V30 12079 1 1349 1355
M  V30 12080 1 1349 1356
M  V30 12081 1 1349 1444
M  V30 12082 1 1349 1446
M  V30 12083 1 1349 1454
M  V30 12084 1 1349 1455
M  V30 12085 1 1349 1456
M  V30 12086 1 1349 1465
M  V30 12087 1 1349 1467
M  V30 12088 1 1348 1350
M  V30 12089 1 1350 1351
M  V30 12090 1 1350 1356
M  V30 12091 1 1350 1372
M  V30 12092 1 1350 1444
M  V30 12093 1 1350 1446
M  V30 12094 1 1350 1448
M  V30 12095 1 1350 1455
M  V30 12096 1 1350 1456
M  V30 12097 1 1350 1458
M  V30 12098 1 1350 1465
M  V30 12099 1 1350 1467
M  V30 12100 1 1350 1469
M  V30 12101 1 1348 1351
M  V30 12102 1 1351 1352
M  V30 12103 1 1351 1372
M  V30 12104 1 1351 1374
M  V30 12105 1 1351 1446
M  V30 12106 1 1351 1448
M  V30 12107 1 1351 1450
M  V30 12108 1 1351 1456
M  V30 12109 1 1351 1458
M  V30 12110 1 1351 1460
M  V30 12111 1 1351 1467
M  V30 12112 1 1351 1469
M  V30 12113 1 1351 1471
M  V30 12114 1 1352 1353
M  V30 12115 1 1352 1372
M  V30 12116 1 1352 1374
M  V30 12117 1 1352 1376
M  V30 12118 1 1352 1448
M  V30 12119 1 1352 1450
M  V30 12120 1 1352 1452
M  V30 12121 1 1352 1458
M  V30 12122 1 1352 1460
M  V30 12123 1 1352 1462
M  V30 12124 1 1352 1469
M  V30 12125 1 1352 1471
M  V30 12126 1 1352 1473
M  V30 12127 1 1353 1374
M  V30 12128 1 1353 1376
M  V30 12129 1 1353 1450
M  V30 12130 1 1353 1452
M  V30 12131 1 1353 1460
M  V30 12132 1 1353 1462
M  V30 12133 1 1353 1471
M  V30 12134 1 1353 1473
M  V30 12135 1 1354 1378
M  V30 12136 1 1354 1379
M  V30 12137 1 1355 1356
M  V30 12138 1 1355 1381
M  V30 12139 1 1355 1383
M  V30 12140 1 1355 1385
M  V30 12141 1 1355 1444
M  V30 12142 1 1355 1457
M  V30 12143 1 1355 1465
M  V30 12144 1 1348 1356
M  V30 12145 1 1356 1383
M  V30 12146 1 1356 1385
M  V30 12147 1 1356 1387
M  V30 12148 1 1356 1444
M  V30 12149 1 1356 1446
M  V30 12150 1 1356 1457
M  V30 12151 1 1356 1459
M  V30 12152 1 1356 1465
M  V30 12153 1 1356 1467
M  V30 12154 1 1350 1357
M  V30 12155 1 1351 1357
M  V30 12156 1 1352 1357
M  V30 12157 1 1357 1358
M  V30 12158 1 1357 1443
M  V30 12159 1 1357 1445
M  V30 12160 1 1357 1447
M  V30 12161 1 1357 1456
M  V30 12162 1 1357 1458
M  V30 12163 1 1357 1460
M  V30 12164 1 1357 1467
M  V30 12165 1 1357 1469
M  V30 12166 1 1357 1471
M  V30 12167 1 1351 1358
M  V30 12168 1 1352 1358
M  V30 12169 1 1353 1358
M  V30 12170 1 1358 1359
M  V30 12171 1 1358 1445
M  V30 12172 1 1358 1447
M  V30 12173 1 1358 1449
M  V30 12174 1 1358 1458
M  V30 12175 1 1358 1460
M  V30 12176 1 1358 1462
M  V30 12177 1 1358 1469
M  V30 12178 1 1358 1471
M  V30 12179 1 1358 1473
M  V30 12180 1 1352 1359
M  V30 12181 1 1353 1359
M  V30 12182 1 1359 1447
M  V30 12183 1 1359 1449
M  V30 12184 1 1359 1460
M  V30 12185 1 1359 1462
M  V30 12186 1 1359 1471
M  V30 12187 1 1359 1473
M  V30 12188 1 1354 1360
M  V30 12189 1 1360 1361
M  V30 12190 1 1360 1451
M  V30 12191 1 1354 1361
M  V30 12192 1 1361 1362
M  V30 12193 1 1361 1451
M  V30 12194 1 1361 1453
M  V30 12195 1 1355 1362
M  V30 12196 1 1362 1363
M  V30 12197 1 1362 1453
M  V30 12198 1 1362 1454
M  V30 12199 1 1349 1363
M  V30 12200 1 1355 1363
M  V30 12201 1 1356 1363
M  V30 12202 1 1363 1444
M  V30 12203 1 1363 1453
M  V30 12204 1 1363 1454
M  V30 12205 1 1363 1455
M  V30 12206 1 1363 1465
M  V30 12207 1 1364 1416
M  V30 12208 1 1364 1420
M  V30 12209 1 1364 1421
M  V30 12210 1 1364 1365
M  V30 12211 1 1365 1366
M  V30 12212 1 1365 1370
M  V30 12213 1 1364 1366
M  V30 12214 1 1366 1370
M  V30 12215 1 1366 1416
M  V30 12216 1 1367 1368
M  V30 12217 1 1367 1416
M  V30 12218 1 1367 1417
M  V30 12219 1 1368 1369
M  V30 12220 1 1368 1417
M  V30 12221 1 1368 1418
M  V30 12222 1 1369 1418
M  V30 12223 1 1364 1370
M  V30 12224 1 1370 1419
M  V30 12225 1 1370 1420
M  V30 12226 1 1370 1421
M  V30 12227 1 1371 1373
M  V30 12228 1 1371 1439
M  V30 12229 1 1371 1440
M  V30 12230 1 1371 1441
M  V30 12231 1 1371 1466
M  V30 12232 1 1371 1468
M  V30 12233 1 1371 1470
M  V30 12234 1 1372 1374
M  V30 12235 1 1372 1387
M  V30 12236 1 1372 1389
M  V30 12237 1 1372 1391
M  V30 12238 1 1372 1446
M  V30 12239 1 1372 1448
M  V30 12240 1 1372 1450
M  V30 12241 1 1372 1459
M  V30 12242 1 1372 1461
M  V30 12243 1 1372 1467
M  V30 12244 1 1372 1469
M  V30 12245 1 1372 1471
M  V30 12246 1 1373 1375
M  V30 12247 1 1373 1440
M  V30 12248 1 1373 1441
M  V30 12249 1 1373 1442
M  V30 12250 1 1373 1468
M  V30 12251 1 1373 1470
M  V30 12252 1 1373 1472
M  V30 12253 1 1374 1376
M  V30 12254 1 1374 1389
M  V30 12255 1 1374 1391
M  V30 12256 1 1374 1393
M  V30 12257 1 1374 1448
M  V30 12258 1 1374 1450
M  V30 12259 1 1374 1452
M  V30 12260 1 1374 1461
M  V30 12261 1 1374 1469
M  V30 12262 1 1374 1471
M  V30 12263 1 1374 1473
M  V30 12264 1 1375 1377
M  V30 12265 1 1375 1441
M  V30 12266 1 1375 1442
M  V30 12267 1 1375 1470
M  V30 12268 1 1375 1472
M  V30 12269 1 1376 1391
M  V30 12270 1 1376 1393
M  V30 12271 1 1376 1450
M  V30 12272 1 1376 1452
M  V30 12273 1 1376 1471
M  V30 12274 1 1376 1473
M  V30 12275 1 1377 1442
M  V30 12276 1 1377 1472
M  V30 12277 1 1378 1379
M  V30 12278 1 1378 1395
M  V30 12279 1 1378 1397
M  V30 12280 1 1378 1463
M  V30 12281 1 1379 1381
M  V30 12282 1 1379 1395
M  V30 12283 1 1379 1397
M  V30 12284 1 1379 1398
M  V30 12285 1 1379 1463
M  V30 12286 1 1379 1464
M  V30 12287 1 1380 1382
M  V30 12288 1 1380 1399
M  V30 12289 1 1381 1383
M  V30 12290 1 1381 1397
M  V30 12291 1 1381 1398
M  V30 12292 1 1381 1400
M  V30 12293 1 1381 1463
M  V30 12294 1 1381 1464
M  V30 12295 1 1381 1466
M  V30 12296 1 1382 1384
M  V30 12297 1 1382 1399
M  V30 12298 1 1382 1401
M  V30 12299 1 1383 1385
M  V30 12300 1 1383 1398
M  V30 12301 1 1383 1400
M  V30 12302 1 1383 1402
M  V30 12303 1 1383 1444
M  V30 12304 1 1383 1457
M  V30 12305 1 1383 1464
M  V30 12306 1 1383 1466
M  V30 12307 1 1383 1468
M  V30 12308 1 1384 1386
M  V30 12309 1 1384 1399
M  V30 12310 1 1384 1401
M  V30 12311 1 1385 1387
M  V30 12312 1 1385 1400
M  V30 12313 1 1385 1402
M  V30 12314 1 1385 1403
M  V30 12315 1 1385 1444
M  V30 12316 1 1385 1446
M  V30 12317 1 1385 1457
M  V30 12318 1 1385 1459
M  V30 12319 1 1385 1466
M  V30 12320 1 1385 1468
M  V30 12321 1 1385 1470
M  V30 12322 1 1386 1388
M  V30 12323 1 1386 1401
M  V30 12324 1 1386 1404
M  V30 12325 1 1387 1389
M  V30 12326 1 1387 1402
M  V30 12327 1 1387 1403
M  V30 12328 1 1387 1405
M  V30 12329 1 1387 1444
M  V30 12330 1 1387 1446
M  V30 12331 1 1387 1448
M  V30 12332 1 1387 1457
M  V30 12333 1 1387 1459
M  V30 12334 1 1387 1461
M  V30 12335 1 1387 1468
M  V30 12336 1 1387 1470
M  V30 12337 1 1387 1472
M  V30 12338 1 1388 1390
M  V30 12339 1 1388 1404
M  V30 12340 1 1388 1406
M  V30 12341 1 1389 1391
M  V30 12342 1 1389 1403
M  V30 12343 1 1389 1405
M  V30 12344 1 1389 1407
M  V30 12345 1 1389 1446
M  V30 12346 1 1389 1448
M  V30 12347 1 1389 1450
M  V30 12348 1 1389 1459
M  V30 12349 1 1389 1461
M  V30 12350 1 1389 1470
M  V30 12351 1 1389 1472
M  V30 12352 1 1390 1392
M  V30 12353 1 1390 1404
M  V30 12354 1 1390 1406
M  V30 12355 1 1390 1408
M  V30 12356 1 1391 1393
M  V30 12357 1 1391 1405
M  V30 12358 1 1391 1407
M  V30 12359 1 1391 1448
M  V30 12360 1 1391 1450
M  V30 12361 1 1391 1452
M  V30 12362 1 1391 1461
M  V30 12363 1 1391 1472
M  V30 12364 1 1392 1394
M  V30 12365 1 1392 1406
M  V30 12366 1 1392 1408
M  V30 12367 1 1392 1409
M  V30 12368 1 1393 1407
M  V30 12369 1 1393 1450
M  V30 12370 1 1393 1452
M  V30 12371 1 1394 1396
M  V30 12372 1 1394 1408
M  V30 12373 1 1394 1409
M  V30 12374 1 1394 1411
M  V30 12375 1 1395 1397
M  V30 12376 1 1395 1410
M  V30 12377 1 1395 1412
M  V30 12378 1 1395 1463
M  V30 12379 1 1396 1409
M  V30 12380 1 1396 1411
M  V30 12381 1 1397 1398
M  V30 12382 1 1397 1410
M  V30 12383 1 1397 1412
M  V30 12384 1 1397 1413
M  V30 12385 1 1397 1463
M  V30 12386 1 1397 1464
M  V30 12387 1 1398 1400
M  V30 12388 1 1398 1412
M  V30 12389 1 1398 1413
M  V30 12390 1 1398 1414
M  V30 12391 1 1398 1439
M  V30 12392 1 1398 1463
M  V30 12393 1 1398 1464
M  V30 12394 1 1398 1466
M  V30 12395 1 1399 1401
M  V30 12396 1 1399 1415
M  V30 12397 1 1371 1400
M  V30 12398 1 1400 1402
M  V30 12399 1 1400 1413
M  V30 12400 1 1400 1414
M  V30 12401 1 1400 1439
M  V30 12402 1 1400 1440
M  V30 12403 1 1400 1457
M  V30 12404 1 1400 1464
M  V30 12405 1 1400 1466
M  V30 12406 1 1400 1468
M  V30 12407 1 1365 1401
M  V30 12408 1 1401 1415
M  V30 12409 1 1371 1402
M  V30 12410 1 1373 1402
M  V30 12411 1 1402 1403
M  V30 12412 1 1402 1414
M  V30 12413 1 1402 1439
M  V30 12414 1 1402 1440
M  V30 12415 1 1402 1441
M  V30 12416 1 1402 1457
M  V30 12417 1 1402 1459
M  V30 12418 1 1402 1466
M  V30 12419 1 1402 1468
M  V30 12420 1 1402 1470
M  V30 12421 1 1371 1403
M  V30 12422 1 1373 1403
M  V30 12423 1 1375 1403
M  V30 12424 1 1403 1405
M  V30 12425 1 1403 1440
M  V30 12426 1 1403 1441
M  V30 12427 1 1403 1442
M  V30 12428 1 1403 1457
M  V30 12429 1 1403 1459
M  V30 12430 1 1403 1461
M  V30 12431 1 1403 1468
M  V30 12432 1 1403 1470
M  V30 12433 1 1403 1472
M  V30 12434 1 1365 1404
M  V30 12435 1 1366 1404
M  V30 12436 1 1404 1406
M  V30 12437 1 1373 1405
M  V30 12438 1 1375 1405
M  V30 12439 1 1377 1405
M  V30 12440 1 1405 1407
M  V30 12441 1 1405 1441
M  V30 12442 1 1405 1442
M  V30 12443 1 1405 1459
M  V30 12444 1 1405 1461
M  V30 12445 1 1405 1470
M  V30 12446 1 1405 1472
M  V30 12447 1 1366 1406
M  V30 12448 1 1367 1406
M  V30 12449 1 1406 1408
M  V30 12450 1 1375 1407
M  V30 12451 1 1377 1407
M  V30 12452 1 1407 1442
M  V30 12453 1 1407 1461
M  V30 12454 1 1407 1472
M  V30 12455 1 1367 1408
M  V30 12456 1 1368 1408
M  V30 12457 1 1408 1409
M  V30 12458 1 1367 1409
M  V30 12459 1 1368 1409
M  V30 12460 1 1369 1409
M  V30 12461 1 1409 1411
M  V30 12462 1 1410 1412
M  V30 12463 1 1410 1463
M  V30 12464 1 1368 1411
M  V30 12465 1 1369 1411
M  V30 12466 1 1412 1413
M  V30 12467 1 1412 1463
M  V30 12468 1 1412 1464
M  V30 12469 1 1413 1414
M  V30 12470 1 1413 1439
M  V30 12471 1 1413 1463
M  V30 12472 1 1413 1464
M  V30 12473 1 1413 1466
M  V30 12474 1 1371 1414
M  V30 12475 1 1414 1439
M  V30 12476 1 1414 1440
M  V30 12477 1 1414 1464
M  V30 12478 1 1414 1466
M  V30 12479 1 1414 1468
M  V30 12480 1 1365 1415
M  V30 12481 1 1370 1415
M  V30 12482 1 1416 1417
M  V30 12483 1 1416 1421
M  V30 12484 1 1419 1420
M  V30 12485 1 1419 1422
M  V30 12486 1 1419 1423
M  V30 12487 1 1420 1421
M  V30 12488 1 1420 1422
M  V30 12489 1 1420 1423
M  V30 12490 1 1421 1423
M  V30 12491 1 1422 1423
M  V30 12492 1 1422 1438
M  V30 12493 1 1423 1438
M  V30 12494 1 1424 1453
M  V30 12495 1 1424 1454
M  V30 12496 1 1424 1455
M  V30 12497 1 1425 1426
M  V30 12498 1 1425 1443
M  V30 12499 1 1425 1445
M  V30 12500 1 1426 1427
M  V30 12501 1 1426 1443
M  V30 12502 1 1426 1445
M  V30 12503 1 1426 1447
M  V30 12504 1 1427 1428
M  V30 12505 1 1427 1445
M  V30 12506 1 1427 1447
M  V30 12507 1 1427 1449
M  V30 12508 1 1428 1447
M  V30 12509 1 1428 1449
M  V30 12510 1 1429 1430
M  V30 12511 1 1431 1432
M  V30 12512 1 1431 1435
M  V30 12513 1 1432 1433
M  V30 12514 1 1432 1435
M  V30 12515 1 1432 1436
M  V30 12516 1 1433 1434
M  V30 12517 1 1433 1435
M  V30 12518 1 1433 1436
M  V30 12519 1 1433 1437
M  V30 12520 1 1434 1436
M  V30 12521 1 1434 1437
M  V30 12522 1 1425 1435
M  V30 12523 1 1426 1435
M  V30 12524 1 1427 1435
M  V30 12525 1 1435 1436
M  V30 12526 1 1426 1436
M  V30 12527 1 1427 1436
M  V30 12528 1 1428 1436
M  V30 12529 1 1436 1437
M  V30 12530 1 1427 1437
M  V30 12531 1 1428 1437
M  V30 12532 1 1429 1438
M  V30 12533 1 1430 1438
M  V30 12534 1 1439 1440
M  V30 12535 1 1440 1441
M  V30 12536 1 1441 1442
M  V30 12537 1 1443 1445
M  V30 12538 1 1443 1455
M  V30 12539 1 1443 1456
M  V30 12540 1 1443 1458
M  V30 12541 1 1444 1446
M  V30 12542 1 1444 1457
M  V30 12543 1 1444 1459
M  V30 12544 1 1445 1447
M  V30 12545 1 1445 1456
M  V30 12546 1 1445 1458
M  V30 12547 1 1445 1460
M  V30 12548 1 1446 1448
M  V30 12549 1 1446 1457
M  V30 12550 1 1446 1459
M  V30 12551 1 1446 1461
M  V30 12552 1 1447 1449
M  V30 12553 1 1447 1458
M  V30 12554 1 1447 1460
M  V30 12555 1 1447 1462
M  V30 12556 1 1448 1450
M  V30 12557 1 1448 1459
M  V30 12558 1 1448 1461
M  V30 12559 1 1449 1460
M  V30 12560 1 1449 1462
M  V30 12561 1 1450 1452
M  V30 12562 1 1450 1461
M  V30 12563 1 1453 1454
M  V30 12564 1 1454 1455
M  V30 12565 1 1454 1465
M  V30 12566 1 1455 1456
M  V30 12567 1 1455 1465
M  V30 12568 1 1455 1467
M  V30 12569 1 1456 1458
M  V30 12570 1 1456 1465
M  V30 12571 1 1456 1467
M  V30 12572 1 1456 1469
M  V30 12573 1 1457 1459
M  V30 12574 1 1457 1466
M  V30 12575 1 1457 1468
M  V30 12576 1 1457 1470
M  V30 12577 1 1458 1460
M  V30 12578 1 1458 1467
M  V30 12579 1 1458 1469
M  V30 12580 1 1458 1471
M  V30 12581 1 1459 1461
M  V30 12582 1 1459 1468
M  V30 12583 1 1459 1470
M  V30 12584 1 1459 1472
M  V30 12585 1 1460 1462
M  V30 12586 1 1460 1469
M  V30 12587 1 1460 1471
M  V30 12588 1 1460 1473
M  V30 12589 1 1461 1470
M  V30 12590 1 1461 1472
M  V30 12591 1 1462 1471
M  V30 12592 1 1462 1473
M  V30 12593 1 1463 1464
M  V30 12594 1 1439 1464
M  V30 12595 1 1464 1466
M  V30 12596 1 1444 1465
M  V30 12597 1 1446 1465
M  V30 12598 1 1465 1467
M  V30 12599 1 1439 1466
M  V30 12600 1 1440 1466
M  V30 12601 1 1466 1468
M  V30 12602 1 1444 1467
M  V30 12603 1 1446 1467
M  V30 12604 1 1448 1467
M  V30 12605 1 1467 1469
M  V30 12606 1 1439 1468
M  V30 12607 1 1440 1468
M  V30 12608 1 1441 1468
M  V30 12609 1 1468 1470
M  V30 12610 1 1446 1469
M  V30 12611 1 1448 1469
M  V30 12612 1 1450 1469
M  V30 12613 1 1469 1471
M  V30 12614 1 1440 1470
M  V30 12615 1 1441 1470
M  V30 12616 1 1442 1470
M  V30 12617 1 1470 1472
M  V30 12618 1 1448 1471
M  V30 12619 1 1450 1471
M  V30 12620 1 1452 1471
M  V30 12621 1 1471 1473
M  V30 12622 1 1441 1472
M  V30 12623 1 1442 1472
M  V30 12624 1 1450 1473
M  V30 12625 1 1452 1473
M  V30 END BOND
M  V30 END CTAB
M  END
>  <pdb_header>


$$$$
